
#=======================================================================
data_global
#=======================================================================

_audit_creation_method                   'Jana2006 Version : 17/09/2021'


# 1. PROCESSING SUMMARY (IUCr Office Use Only)

_journal_date_recd_electronic            ?
_journal_date_to_coeditor                ?
_journal_date_from_coeditor              ?
_journal_date_accepted                   ?
_journal_date_printers_first             ?
_journal_date_printers_final             ?
_journal_date_proofs_out                 ?
_journal_date_proofs_in                  ?
_journal_coeditor_name                   ?
_journal_coeditor_code                   ?
_journal_coeditor_notes
; ?
;
_journal_techeditor_code                 ?
_journal_paper_category                  ?
_journal_techeditor_notes
; ?
;
_journal_coden_ASTM                      ?
_journal_name_full                       'Acta Crystallographica Section C'
_journal_year                            ?
_journal_volume                          ?
_journal_issue                           ?
_journal_page_first                      ?
_journal_page_last                       ?
_journal_suppl_publ_number               ?
_journal_suppl_publ_pages                ?

#=======================================================================

# 2. SUBMISSION DETAILS

_publ_contact_author_name                ?
_publ_contact_author_address
; ?
;
_publ_contact_author_email               ?
_publ_contact_author_fax                 ?
_publ_contact_author_phone               ?

_publ_requested_journal                  'Acta Crystallographica Section C'
_publ_requested_category                 ?

_publ_contact_letter
; ?
;

#=======================================================================

# 3. TITLE AND AUTHOR LIST

_publ_section_title
; ?
;
_publ_section_title_footnote
; ?
;
loop_
 _publ_author_name
 _publ_author_footnote
 _publ_author_address
; ?      # name
;
; ?      # footnote
;
; ?      # address
;

#=======================================================================

# 4. TEXT

_publ_section_synopsis
; ?
;
_publ_section_abstract
; ?
;
_publ_section_comment
; ?
;
_publ_section_introduction
; ?
;
_publ_section_experimental
; ?
;
_publ_section_exptl_prep
; ?
;
_publ_section_exptl_refinement
; ?
;
_publ_section_exptl_solution
; ?
;
_publ_section_discussion
; ?
;
_publ_section_acknowledgements
; ?
;
_publ_section_references
;
Petricek, V., Dusek, M. & Palatinus L. (2014). Z. Kristallogr. 229(5), 345-352.

Palatinus L. & Chapuis G. (2007). J. Appl. Cryst. 40, 786-790.

# enable this reference if Diamond ver. 2 was used for visualization
#Brandenburg, K. (1999). DIAMOND. Version. 2.1c.
#Crystal Impact GbR, Bonn, Germany.

# enable this reference if Diamond ver. 3 was used for visualization
#Brandenburg, K. & Putz, H. (2005). DIAMOND Version 3.
#Crystal Impact GbR, Postfach 1251, D-53002 Bonn, Germany.

# enable this reference if SIR97 was used for solving of the structure
#Altomare, A., Burla, M. C., Camalli, M., Cascarano, G., Giacovazzo, C.,
#Guagliardi, A., Moliterni, A. G. G., Polidori, G., Spagna, R. (1997).
#SIR97. A Package for Crystal Structure Solution by Direct Methods
#and Refinement, Bari, Rome, Italy.

# use this reference if SIR2002 was used for solving of the structure
#Burla, M.C., Camalli, M., Carrozzini, B., Cascarano, G., Giacovazzo, C.,
#Polidori, G., Spagna, R.
#SIR2002: the program, J. Appl. Cryst, (2003). 36, 1103


# use this reference if SIR2011 was used for solving of the structure
#Burla, M.C., Caliandro, R., Camalli, M., Carrozzini, B., Cascarano,
#G.L., Giacovazzo, C., Mallamo. M., Mazzone, A., Polidori, G., Spagna, R.
#SIR2011: a new package for crystal structure determination and refinement,
#J.Appl.Cryst. (2012) 45, 357-361

# enable this reference if bond valences were calculated
#Brown, I. D. (1996). J. Appl. Cryst. 29, 479-480.

# enable this reference if Xshape wase used for crystal shape refinement
#Stoe & Cie (1998). X-SHAPE. Stoe & Cie, Darmstadt, Germany.


# enable this reference if Flack coefficient was refined
#Flack, H. D. (1983). Acta Cryst. A39, 876-881.
;
_publ_section_figure_captions
; ?
;
_publ_section_table_legends
; ?
;

#=======================================================================
data_I
#=======================================================================

# 5. CHEMICAL DATA

_chemical_name_systematic
; ?
;
_chemical_name_common                    ?
_chemical_formula_moiety                 ?
_chemical_formula_structural             ?
_chemical_formula_analytical             ?
_chemical_formula_iupac                  ?
_chemical_formula_sum                    'C6 H12 O6'
_chemical_formula_weight                 180.2
_chemical_melting_point                  ?
_chemical_compound_source                ?
_chemical_absolute_configuration         ?

#=======================================================================

# 6. POWDER SPECIMEN AND CRYSTAL DATA

_symmetry_cell_setting                   orthorhombic
_symmetry_space_group_name_H-M           'P 21 21 21'
_symmetry_space_group_name_Hall          'P 2xab;2ybc;2zac'
_symmetry_Int_Tables_number              19

loop_
 _space_group_symop_id
 _space_group_symop_operation_xyz
 1   x,y,z
 2   -x+1/2,-y,z+1/2
 3   -x,y+1/2,-z+1/2
 4   x+1/2,-y+1/2,-z

_cell_length_a                           10.4252(10)
_cell_length_b                           14.9142(19)
_cell_length_c                           5.0105(3)
_cell_angle_alpha                        90
_cell_angle_beta                         90
_cell_angle_gamma                        90
_cell_volume                             779.05(13)


_cell_formula_units_Z                    4
_cell_measurement_temperature            293
_cell_special_details
; ?
;

_exptl_crystal_density_diffrn            1.536
_exptl_crystal_density_meas              ?
_exptl_crystal_density_method            ?
_exptl_crystal_F_000                     384

_pd_spec_size_axial                      ?
_pd_spec_size_equat                      ?
_pd_spec_size_thick                      ?
_pd_spec_mounting                        ?
_pd_spec_mount_mode                      ?
_pd_spec_shape                           ?
_pd_char_particle_morphology             ?
_pd_char_colour                          ?
_pd_prep_cool_rate                       ?
_pd_prep_pressure                        ?
_pd_prep_temperature                     ?

_exptl_absorpt_coefficient_mu            1.164
_exptl_absorpt_correction_type           ?
_exptl_absorpt_process_details           ?
_exptl_absorpt_correction_T_min          ?
_exptl_absorpt_correction_T_max          ?
loop_
 _exptl_crystal_face_index_h
 _exptl_crystal_face_index_k
 _exptl_crystal_face_index_l
 _exptl_crystal_face_perp_dist
 ? ? ? ?

#=======================================================================

# 7. EXPERIMENTAL DATA

_exptl_special_details                   ?
_pd_instr_location
; ?
;
_pd_calibration_special_details
; ?
;

_diffrn_ambient_temperature              293
_diffrn_source                           ?
_diffrn_source_target                    ?
_diffrn_source_type                      ?
_diffrn_radiation_type                   ?
_diffrn_radiation_wavelength             1.54051
_diffrn_radiation_monochromator          ?
_diffrn_measurement_device               ?
_diffrn_measurement_device_type          ?
_diffrn_detector                         ?
_diffrn_detector_type                    ?

_pd_meas_scan_method                     ?
_pd_meas_special_details
; ?
;
_pd_meas_number_of_points                4096
_pd_meas_2theta_range_min                1.646
_pd_meas_2theta_range_max                120.560
_pd_meas_2theta_range_inc                ?

_diffrn_radiation_probe                  X-ray

#=======================================================================

# 8. REFINEMENT DATA

_pd_proc_ls_special_details
; ?
;
_pd_proc_ls_profile_function             'Pseudo-Voigt'
_pd_proc_ls_background_function          '12 Legendre polynoms'
_pd_proc_ls_pref_orient_corr             none
_pd_proc_ls_prof_R_factor                0.1427
_pd_proc_ls_prof_wR_factor               0.1902
_pd_proc_ls_prof_wR_expected             0.0185

_refine_special_details
; ?
;

_refine_ls_R_factor_gt                   0.2230
_refine_ls_wR_factor_gt                  0.2492
_refine_ls_R_factor_all                  0.2714
_refine_ls_wR_factor_all                 0.2528
_refine_ls_goodness_of_fit_all           10.28
_refine_ls_restrained_S_gt               ?
_refine_ls_restrained_S_all              ?
_refine_ls_number_parameters             54
_refine_ls_number_restraints             16
_refine_ls_number_constraints            10
_refine_ls_weighting_scheme              sigma
_refine_ls_weighting_details             ?
_refine_ls_hydrogen_treatment            'constr'
_refine_ls_shift/su_max                  0.0430
_refine_ls_shift/su_mean                 0.0142
_refine_diff_density_max                 ?
_refine_diff_density_min                 ?
_refine_ls_extinction_method             ?
_refine_ls_extinction_coef               ?
_refine_ls_extinction_expression         ?

_pd_proc_2theta_range_min                9.689
_pd_proc_2theta_range_max                104.501
_pd_proc_2theta_range_inc                ?
_pd_proc_wavelength                      ?

_pd_block_diffractogram_id               ?

loop_
_pd_proc_info_excluded_regions
 'from 1.644 to 9.672'
 'from 104.509 to 120.681'
_pd_proc_info_data_reduction             ?

loop_
 _atom_type_symbol
 _atom_type_scat_dispersion_real
 _atom_type_scat_dispersion_imag
 _atom_type_scat_source
 _atom_type_scat_Cromer_Mann_a1
 _atom_type_scat_Cromer_Mann_b1
 _atom_type_scat_Cromer_Mann_a2
 _atom_type_scat_Cromer_Mann_b2
 _atom_type_scat_Cromer_Mann_a3
 _atom_type_scat_Cromer_Mann_b3
 _atom_type_scat_Cromer_Mann_a4
 _atom_type_scat_Cromer_Mann_b4
 _atom_type_scat_Cromer_Mann_c
 C    0.0191  0.0095
 'International Tables Vol C tables 4.2.6.8 and 6.1.1.4'
2.31 20.843901 1.02 10.2075 1.5886 0.5687 0.865 51.651199 0.2156
 H    0.0000  0.0000
 'International Tables Vol C tables 4.2.6.8 and 6.1.1.4'
0.493002 10.5109 0.322912 26.1257 0.140191 3.14236 0.04081 57.799702 0.003038
 O    0.0516  0.0335
 'International Tables Vol C tables 4.2.6.8 and 6.1.1.4'
3.0485 13.2771 2.2868 5.7011 1.5463 0.3239 0.867 32.908901 0.2508

_computing_data_collection               ?
_computing_cell_refinement               ?
_computing_data_reduction                ?
_computing_structure_solution            ?
_computing_structure_refinement          ?
_computing_molecular_graphics            ?
_computing_publication_material          ?

loop_
 _restr_distance_atom_site_label_1
 _restr_distance_site_symmetry_1
 _restr_distance_atom_site_label_2
 _restr_distance_site_symmetry_2
 _restr_distance_target
 _restr_distance_target_weight_param
C1 . C2 . 1.52 0.001
C2 . C3 . 1.52 0.001
C3 . C4 . 1.52 0.001
C4 . C5 . 1.52 0.001
C5 . C6 . 1.52 0.001
C1 . O1 . 1.43 0.001
C2 . O2 . 1.43 0.001
C3 . O3 . 1.43 0.001
C4 . O4 . 1.43 0.001
C5 . O5 . 1.43 0.001
C1 . O5 . 1.43 0.001
C6 . O6 . 1.43 0.001

loop_
 _restr_angle_atom_site_label_1
 _restr_angle_site_symmetry_1
 _restr_angle_atom_site_label_2
 _restr_angle_site_symmetry_2
 _restr_angle_atom_site_label_3
 _restr_angle_site_symmetry_3
 _restr_angle_target
 _restr_angle_target_weight_param
C1 . C2 . C3 . 109.47 0.01
C2 . C3 . C4 . 109.47 0.01
C3 . C4 . C5 . 109.47 0.01
C4 . C5 . C6 . 109.47 0.01

loop_
 _restr_torsion_atom_site_label_1
 _restr_torsion_site_symmetry_1
 _restr_torsion_atom_site_label_2
 _restr_torsion_site_symmetry_2
 _restr_torsion_atom_site_label_3
 _restr_torsion_site_symmetry_3
 _restr_torsion_atom_site_label_4
 _restr_torsion_site_symmetry_4
 _restr_torsion_angle_target
 _restr_torsion_weight_param
 ? ? ? ? ? ? ? ? ? ?

loop_
 _restr_equal_distance_atom_site_label_1
 _restr_equal_distance_site_symmetry_1
 _restr_equal_distance_atom_site_label_2
 _restr_equal_distance_site_symmetry_2
 _restr_equal_distance_class_class_id
 _restr_equal_distance_class_target_weight_param
 ? ? ? ? ? ?

loop_
 _restr_equal_angle_atom_site_label_1
 _restr_equal_angle_site_symmetry_1
 _restr_equal_angle_atom_site_label_2
 _restr_equal_angle_site_symmetry_2
 _restr_equal_angle_atom_site_label_3
 _restr_equal_angle_site_symmetry_3
 _restr_equal_angle_class_class_id
 _restr_equal_angle_class_target_weight_param
 ? ? ? ? ? ? ? ?

loop_
 _restr_equal_torsion_atom_site_label_1
 _restr_equal_torsion_site_symmetry_1
 _restr_equal_torsion_atom_site_label_2
 _restr_equal_torsion_site_symmetry_2
 _restr_equal_torsion_atom_site_label_3
 _restr_equal_torsion_site_symmetry_3
 _restr_equal_torsion_atom_site_label_4
 _restr_equal_torsion_site_symmetry_4
 _restr_equal_torsion_class_class_id
 _restr_equal_torsion_class_target_weight_param
 ? ? ? ? ? ? ? ? ? ?


#=======================================================================

# 9. ATOMIC COORDINATES AND DISPLACEMENT PARAMETERS

loop_
 _atom_site_label
 _atom_site_type_symbol
 _atom_site_fract_x
 _atom_site_fract_y
 _atom_site_fract_z
 _atom_site_adp_type
 _atom_site_U_iso_or_equiv
 _atom_site_site_symmetry_multiplicity
 _atom_site_occupancy
 _atom_site_calc_flag
 _atom_site_refinement_flags
 _atom_site_disorder_assembly
 _atom_site_disorder_group
  C1 C 0.3517(18) 0.6081(13) -0.082(4) Uiso 0.017(6) 4 1 d . . .
  C2 C 0.424(2) 0.6814(11) 0.067(4) Uiso 0.017(6) 4 1 d . . .
  C3 C 0.5671(18) 0.6653(13) 0.043(4) Uiso 0.017(6) 4 1 d . . .
  C4 C 0.5971(15) 0.5684(13) 0.113(5) Uiso 0.017(6) 4 1 d . . .
  C5 C 0.4959(16) 0.5075(13) -0.009(5) Uiso 0.017(6) 4 1 d . . .
  C6 C 0.507(3) 0.4145(13) 0.113(5) Uiso 0.017(6) 4 1 d . . .
  O1 O 0.337(2) 0.6003(16) -0.365(4) Uiso 0.043(4) 4 1 d . . .
  O2 O 0.385(2) 0.7617(13) -0.067(4) Uiso 0.043(4) 4 1 d . . .
  O3 O 0.636(2) 0.7335(14) 0.183(4) Uiso 0.043(4) 4 1 d . . .
  O4 O 0.7280(17) 0.5403(15) 0.095(6) Uiso 0.043(4) 4 1 d . . .
  O5 O 0.3598(17) 0.5175(14) 0.011(5) Uiso 0.043(4) 4 1 d . . .
  O6 O 0.462(2) 0.3400(14) -0.041(5) Uiso 0.043(4) 4 1 d . . .
  H1 H 0.2327 0.6124 -0.0154 Uiso 0.05 4 1 d . . .
  H2 H 0.3958 0.6776 0.2599 Uiso 0.05 4 1 d . . .
  H3 H 0.5888 0.6543 -0.1995 Uiso 0.05 4 1 d . . .
  H4 H 0.5677 0.5565 0.3385 Uiso 0.05 4 1 d . . .
  H5 H 0.5136 0.4865 -0.2312 Uiso 0.05 4 1 d . . .
  H6 H 0.6172 0.3792 0.1032 Uiso 0.05 4 1 d . . .
  H7 H 0.4804 0.3947 0.3116 Uiso 0.05 4 1 d . . .
  H8 H 0.2753 0.5674 -0.4299 Uiso 0.05 4 1 d . . .
  H9 H 0.4485 0.7776 -0.2031 Uiso 0.05 4 1 d . . .
  H10 H 0.7247 0.7137 0.1178 Uiso 0.05 4 1 d . . .
  H11 H 0.7517 0.5082 0.2326 Uiso 0.05 4 1 d . . .
  H12 H 0.4127 0.2861 0.0699 Uiso 0.05 4 1 d . . .

loop_
 _atom_site_aniso_label
 _atom_site_aniso_type_symbol
 _atom_site_aniso_U_11
 _atom_site_aniso_U_22
 _atom_site_aniso_U_33
 _atom_site_aniso_U_12
 _atom_site_aniso_U_13
 _atom_site_aniso_U_23
 ? ? ? ? ? ? ? ?

loop_
 _jana_atom_site_ADP_C_label
 _jana_atom_site_ADP_C_type_symbol
 _jana_atom_site_ADP_C_111
 _jana_atom_site_ADP_C_112
 _jana_atom_site_ADP_C_113
 _jana_atom_site_ADP_C_122
 _jana_atom_site_ADP_C_123
 _jana_atom_site_ADP_C_133
 _jana_atom_site_ADP_C_222
 _jana_atom_site_ADP_C_223
 _jana_atom_site_ADP_C_233
 _jana_atom_site_ADP_C_333
 ? ? ? ? ? ? ? ? ? ? ? ?

loop_
 _jana_atom_site_ADP_D_label
 _jana_atom_site_ADP_D_type_symbol
 _jana_atom_site_ADP_D_1111
 _jana_atom_site_ADP_D_1112
 _jana_atom_site_ADP_D_1113
 _jana_atom_site_ADP_D_1122
 _jana_atom_site_ADP_D_1123
 _jana_atom_site_ADP_D_1133
 _jana_atom_site_ADP_D_1222
 _jana_atom_site_ADP_D_1223
 _jana_atom_site_ADP_D_1233
 _jana_atom_site_ADP_D_1333
 _jana_atom_site_ADP_D_2222
 _jana_atom_site_ADP_D_2223
 _jana_atom_site_ADP_D_2233
 _jana_atom_site_ADP_D_2333
 _jana_atom_site_ADP_D_3333
 ? ? ? ? ? ? ? ? ? ? ? ? ? ? ? ? ?

loop_
 _jana_atom_site_ADP_E_label
 _jana_atom_site_ADP_E_type_symbol
 _jana_atom_site_ADP_E_11111
 _jana_atom_site_ADP_E_11112
 _jana_atom_site_ADP_E_11113
 _jana_atom_site_ADP_E_11122
 _jana_atom_site_ADP_E_11123
 _jana_atom_site_ADP_E_11133
 _jana_atom_site_ADP_E_11222
 _jana_atom_site_ADP_E_11223
 _jana_atom_site_ADP_E_11233
 _jana_atom_site_ADP_E_11333
 _jana_atom_site_ADP_E_12222
 _jana_atom_site_ADP_E_12223
 _jana_atom_site_ADP_E_12233
 _jana_atom_site_ADP_E_12333
 _jana_atom_site_ADP_E_13333
 _jana_atom_site_ADP_E_22222
 _jana_atom_site_ADP_E_22223
 _jana_atom_site_ADP_E_22233
 _jana_atom_site_ADP_E_22333
 _jana_atom_site_ADP_E_23333
 _jana_atom_site_ADP_E_33333
 ? ? ? ? ? ? ? ? ? ? ? ? ? ? ? ? ? ? ? ? ? ? ?

loop_
 _jana_atom_site_ADP_F_label
 _jana_atom_site_ADP_F_type_symbol
 _jana_atom_site_ADP_F_111111
 _jana_atom_site_ADP_F_111112
 _jana_atom_site_ADP_F_111113
 _jana_atom_site_ADP_F_111122
 _jana_atom_site_ADP_F_111123
 _jana_atom_site_ADP_F_111133
 _jana_atom_site_ADP_F_111222
 _jana_atom_site_ADP_F_111223
 _jana_atom_site_ADP_F_111233
 _jana_atom_site_ADP_F_111333
 _jana_atom_site_ADP_F_112222
 _jana_atom_site_ADP_F_112223
 _jana_atom_site_ADP_F_112233
 _jana_atom_site_ADP_F_112333
 _jana_atom_site_ADP_F_113333
 _jana_atom_site_ADP_F_122222
 _jana_atom_site_ADP_F_122223
 _jana_atom_site_ADP_F_122233
 _jana_atom_site_ADP_F_122333
 _jana_atom_site_ADP_F_123333
 _jana_atom_site_ADP_F_133333
 _jana_atom_site_ADP_F_222222
 _jana_atom_site_ADP_F_222223
 _jana_atom_site_ADP_F_222233
 _jana_atom_site_ADP_F_222333
 _jana_atom_site_ADP_F_223333
 _jana_atom_site_ADP_F_233333
 _jana_atom_site_ADP_F_333333
 ? ? ? ? ? ? ? ? ? ? ? ? ? ? ? ? ? ? ? ? ? ? ? ? ? ? ? ? ? ?


#=======================================================================

# 10. MOLECULAR GEOMETRY


loop_
 _geom_bond_atom_site_label_1
 _geom_bond_atom_site_label_2
 _geom_bond_site_symmetry_1
 _geom_bond_site_symmetry_2
 _geom_bond_distance
 _geom_bond_publ_flag
 ? ? ? ? ? ?

loop_
 _geom_angle_atom_site_label_1
 _geom_angle_atom_site_label_2
 _geom_angle_atom_site_label_3
 _geom_angle_site_symmetry_1
 _geom_angle_site_symmetry_2
 _geom_angle_site_symmetry_3
 _geom_angle
 _geom_angle_publ_flag
 ? ? ? ? ? ? ? ?

loop_
 _geom_torsion_atom_site_label_1
 _geom_torsion_atom_site_label_2
 _geom_torsion_atom_site_label_3
 _geom_torsion_atom_site_label_4
 _geom_torsion_site_symmetry_1
 _geom_torsion_site_symmetry_2
 _geom_torsion_site_symmetry_3
 _geom_torsion_site_symmetry_4
 _geom_torsion
 _geom_torsion_publ_flag
 ? ? ? ? ? ? ? ? ? ?

loop_
 _geom_hbond_atom_site_label_D
 _geom_hbond_atom_site_label_H
 _geom_hbond_atom_site_label_A
 _geom_hbond_site_symmetry_D
 _geom_hbond_site_symmetry_H
 _geom_hbond_site_symmetry_A
 _geom_hbond_distance_DH
 _geom_hbond_distance_HA
 _geom_hbond_distance_DA
 _geom_hbond_angle_DHA
 _geom_hbond_publ_flag
 ? ? ? ? ? ? ? ? ? ? ?


#=======================================================================

# 11. POWDER PROFILE

loop_
 _pd_proc_point_id
 _pd_proc_2theta_corrected
 _pd_proc_d_spacing
 _pd_proc_intensity_net
 _pd_calc_intensity_net
 _pd_proc_ls_weight
         1    9.5640  9.239573   2625.00   2154.82     51.23
         2    9.5930  9.211707   2585.00   2187.14     50.84
         3    9.6230  9.183056   2591.00   2220.55     50.90
         4    9.6520  9.155530   2630.00   2252.95     51.28
         5    9.6810  9.128170   2601.00   2285.59     51.00
         6    9.7100  9.100972   2589.00   2318.69     50.88
         7    9.7390  9.073936   2725.00   2352.51     52.20
         8    9.7680  9.047063   2811.00   2387.41     53.02
         9    9.7970  9.020348   2882.00   2423.90     53.68
        10    9.8260  8.993790   2903.00   2462.74     53.88
        11    9.8550  8.967390   2792.00   2505.15     52.84
        12    9.8840  8.941144   2637.00   2553.29     51.35
        13    9.9130  8.915051   2530.00   2611.31     50.30
        14    9.9420  8.889112   2483.00   2686.84     49.83
        15    9.9710  8.863324   2830.00   2790.75     53.20
        16   10.0000  8.837686   2939.00   2931.05     54.21
        17   10.0290  8.812195   3224.00   3107.86     56.78
        18   10.0580  8.786853   3403.00   3319.92     58.34
        19   10.0870  8.761655   3537.00   3569.84     59.47
        20   10.1160  8.736603   3816.00   3865.00     61.77
        21   10.1450  8.711693   4039.00   4218.20     63.55
        22   10.1740  8.686928   4351.00   4650.25     65.96
        23   10.2030  8.662301   4785.00   5195.47     69.17
        24   10.2320  8.637815   5405.00   5905.75     73.52
        25   10.2610  8.613468   5995.00   6823.38     77.43
        26   10.2900  8.589257   6963.00   7857.02     83.44
        27   10.3190  8.565183   8035.00   8503.30     89.64
        28   10.3480  8.541245   7443.00   7803.74     86.27
        29   10.3780  8.516622   6068.00   6011.07     77.90
        30   10.4070  8.492954   4424.00   4641.90     66.51
        31   10.4360  8.469419   3589.00   3880.69     59.91
        32   10.4650  8.446014   3276.00   3499.87     57.24
        33   10.4940  8.422738   3065.00   3302.98     55.36
        34   10.5230  8.399591   3206.00   3189.84     56.62
        35   10.5520  8.376572   3239.00   3119.08     56.91
        36   10.5810  8.353679   3121.00   3072.95     55.87
        37   10.6100  8.330912   3130.00   3042.44     55.95
        38   10.6390  8.308268   3124.00   3022.31     55.89
        39   10.6680  8.285748   3204.00   3009.32     56.60
        40   10.6970  8.263350   3268.00   3001.36     57.17
        41   10.7260  8.241073   3137.00   2997.02     56.01
        42   10.7550  8.218916   3064.00   2995.33     55.35
        43   10.7840  8.196878   3124.00   2995.61     55.89
        44   10.8130  8.174961   3178.00   2997.36     56.37
        45   10.8420  8.153159   3095.00   3000.22     55.63
        46   10.8710  8.131474   3018.00   3003.91     54.94
        47   10.9000  8.109905   2993.00   3008.22     54.71
        48   10.9290  8.088450   2942.00   3013.00     54.24
        49   10.9580  8.067109   2943.00   3036.09     54.25
        50   10.9870  8.045881   2948.00   3042.78     54.30
        51   11.0160  8.024766   2986.00   3049.79     54.64
        52   11.0450  8.003760   3021.00   3057.08     54.96
        53   11.0740  7.982866   3196.00   3064.64     56.53
        54   11.1040  7.961366   2957.00   3072.73     54.38
        55   11.1330  7.940692   3080.00   3080.83     55.50
        56   11.1620  7.920127   3069.00   3089.24     55.40
        57   11.1920  7.898964   2868.00   3098.01     53.55
        58   11.2210  7.878615   3207.00   3107.22     56.63
        59   11.2500  7.858371   3082.00   3095.23     55.52
        60   11.2790  7.838231   3177.00   3106.95     56.36
        61   11.3080  7.818195   2939.00   3119.48     54.21
        62   11.3370  7.798260   3082.00   3133.13     55.52
        63   11.3660  7.778429   3055.00   3148.35     55.27
        64   11.3950  7.758698   3005.00   3165.82     54.82
        65   11.4240  7.739067   2968.00   3186.66     54.48
        66   11.4530  7.719536   3077.00   3212.91     55.47
        67   11.4820  7.700104   3250.00   3248.49     57.01
        68   11.5110  7.680770   3487.00   3300.31     59.05
        69   11.5400  7.661533   3616.00   3377.68     60.13
        70   11.5690  7.642393   3830.00   3487.11     61.89
        71   11.5980  7.623349   4078.00   3629.70     63.86
        72   11.6270  7.604400   4188.00   3806.84     64.71
        73   11.6560  7.585546   4371.00   4024.33     66.11
        74   11.6850  7.566784   4806.00   4294.38     69.33
        75   11.7140  7.548117   5094.00   4638.76     71.37
        76   11.7430  7.529541   5740.00   5091.32     75.76
        77   11.7720  7.511057   6535.00   5682.06     80.84
        78   11.8010  7.492665   7506.00   6364.14     86.64
        79   11.8300  7.474362   8630.00   6852.69     92.90
        80   11.8600  7.455523   8181.00   6521.58     90.45
        81   11.8890  7.437402   6672.00   5444.74     81.68
        82   11.9180  7.419370   4848.00   4499.69     69.63
        83   11.9470  7.401426   3897.00   3943.24     62.43
        84   11.9760  7.383568   3583.00   3656.60     59.86
        85   12.0050  7.365797   3458.00   3507.36     58.80
        86   12.0340  7.348111   3317.00   3420.80     57.59
        87   12.0630  7.330512   3198.00   3364.85     56.55
        88   12.0920  7.312995   3275.00   3326.20     57.23
        89   12.1210  7.295564   3288.00   3298.40     57.34
        90   12.1500  7.278216   3299.00   3277.80     57.44
        91   12.1790  7.260951   3252.00   3262.15     57.03
        92   12.2080  7.243767   3178.00   3250.02     56.37
        93   12.2370  7.226665   3205.00   3240.43     56.61
        94   12.2660  7.209645   3112.00   3232.73     55.79
        95   12.2950  7.192705   3071.00   3226.45     55.42
        96   12.3240  7.175844   2977.00   3221.24     54.56
        97   12.3530  7.159063   3013.00   3216.88     54.89
        98   12.3820  7.142361   3174.00   3213.16     56.34
        99   12.4110  7.125737   3367.00   3209.95     58.03
       100   12.4400  7.109191   3152.00   3207.15     56.14
       101   12.4690  7.092721   3222.00   3204.66     56.76
       102   12.4980  7.076329   3087.00   3202.43     55.56
       103   12.5270  7.060012   3039.00   3200.39     55.13
       104   12.5560  7.043771   3046.00   3198.52     55.19
       105   12.5850  7.027605   3136.00   3196.77     56.00
       106   12.6150  7.010960   3282.00   3195.07     57.29
       107   12.6440  6.994945   3305.00   3193.50     57.49
       108   12.6730  6.979003   3117.00   3191.99     55.83
       109   12.7020  6.963134   3107.00   3190.52     55.74
       110   12.7310  6.947338   2955.00   3189.09     54.36
       111   12.7600  6.931614   2707.00   3173.76     52.03
       112   12.7890  6.915961   2661.00   3173.18     51.58
       113   12.8180  6.900379   2697.00   3172.52     51.93
       114   12.8470  6.884868   2589.00   3171.81     50.88
       115   12.8760  6.869426   2638.00   3171.04     51.36
       116   12.9050  6.854055   2625.00   3170.22     51.23
       117   12.9340  6.838752   2703.00   3169.34     51.99
       118   12.9630  6.823518   2743.00   3168.41     52.37
       119   12.9920  6.808352   2779.00   3167.43     52.72
       120   13.0210  6.793253   2868.00   3166.40     53.55
       121   13.0500  6.778222   2804.00   3165.32     52.95
       122   13.0790  6.763258   2555.00   3164.21     50.55
       123   13.1080  6.748361   2595.00   3163.05     50.94
       124   13.1370  6.733528   2633.00   3161.84     51.31
       125   13.1660  6.718761   2412.00   3160.61     49.11
       126   13.1950  6.704061   2369.00   3159.33     48.67
       127   13.2240  6.689424   2453.00   3158.02     49.53
       128   13.2530  6.674851   2346.00   3156.68     48.44
       129   13.2820  6.660343   2458.00   3155.30     49.58
       130   13.3110  6.645897   2549.00   3153.90     50.49
       131   13.3410  6.631020   2698.00   3152.42     51.94
       132   13.3700  6.616702   2913.00   3150.96     53.97
       133   13.3990  6.602446   3004.00   3149.48     54.81
       134   13.4280  6.588252   2949.00   3147.98     54.30
       135   13.4570  6.574120   3099.00   3146.45     55.67
       136   13.4860  6.560048   3056.00   3144.90     55.28
       137   13.5150  6.546036   3018.00   3143.34     54.94
       138   13.5440  6.532086   3005.00   3141.76     54.82
       139   13.5730  6.518194   2997.00   3140.17     54.74
       140   13.6020  6.504362   2999.00   3138.56     54.76
       141   13.6310  6.490590   3057.00   3136.94     55.29
       142   13.6600  6.476875   2843.00   3198.52     53.32
       143   13.6890  6.463219   2765.00   3201.25     52.58
       144   13.7180  6.449621   2845.00   3204.45     53.34
       145   13.7470  6.436080   2883.00   3208.18     53.69
       146   13.7760  6.422596   2968.00   3212.54     54.48
       147   13.8050  6.409170   3114.00   3217.62     55.80
       148   13.8340  6.395800   3165.00   3223.55     56.26
       149   13.8630  6.382485   3179.00   3230.49     56.38
       150   13.8920  6.369226   3121.00   3238.62     55.87
       151   13.9210  6.356024   3050.00   3248.17     55.23
       152   13.9500  6.342876   3058.00   3259.44     55.30
       153   13.9790  6.329782   2991.00   3272.81     54.69
       154   14.0080  6.316743   3083.00   3288.75     55.52
       155   14.0370  6.303758   3146.00   3307.91     56.09
       156   14.0660  6.290827   3185.00   3331.13     56.44
       157   14.0960  6.277506   3169.00   3360.65     56.29
       158   14.1250  6.264682   3318.00   3396.18     57.60
       159   14.1540  6.251912   3422.00   3440.93     58.50
       160   14.1830  6.239194   3505.00   3498.45     59.20
       161   14.2120  6.226527   3419.00   3574.54     58.47
       162   14.2410  6.213913   3568.00   3679.75     59.73
       163   14.2700  6.201350   3651.00   3834.28     60.42
       164   14.2990  6.188838   3971.00   4074.67     63.02
       165   14.3280  6.176377   4365.00   4456.11     66.07
       166   14.3570  6.163967   4848.00   5034.54     69.63
       167   14.3860  6.151607   5275.00   5843.09     72.63
       168   14.4150  6.139296   5857.00   6915.23     76.53
       169   14.4440  6.127034   6896.00   8325.25     83.04
       170   14.4730  6.114823   8380.00  10202.80     91.54
       171   14.5020  6.102660  10034.00  12661.90    100.17
       172   14.5310  6.090545  12294.00  15526.20    110.88
       173   14.5600  6.078479  14708.00  17781.80    121.28
       174   14.5890  6.066462  14879.00  17251.70    121.98
       175   14.6180  6.054493  12253.00  13423.70    110.69
       176   14.6470  6.042570   8164.00   9389.98     90.35
       177   14.6760  6.030695   5151.00   6765.59     71.77
       178   14.7050  6.018867   3979.00   5344.91     63.08
       179   14.7340  6.007085   3725.00   4608.95     61.03
       180   14.7630  5.995351   3641.00   4197.96     60.34
       181   14.7920  5.983662   3761.00   3939.20     61.33
       182   14.8210  5.972019   3787.00   3761.36     61.54
       183   14.8510  5.960022   3643.00   3628.96     60.36
       184   14.8800  5.948472   3647.00   3533.70     60.39
       185   14.9090  5.936966   3553.00   3460.51     59.61
       186   14.9380  5.925506   3482.00   3403.04     59.01
       187   14.9670  5.914090   3312.00   3357.05     57.55
       188   14.9960  5.902718   3254.00   3319.65     57.04
       189   15.0250  5.891390   3334.00   3288.80     57.74
       190   15.0540  5.880106   3342.00   3263.03     57.81
       191   15.0830  5.868866   3347.00   3241.28     57.85
       192   15.1120  5.857668   3353.00   3222.73     57.91
       193   15.1410  5.846514   3340.00   3206.77     57.79
       194   15.1700  5.835403   3474.00   3192.95     58.94
       195   15.1990  5.824334   3560.00   3180.88     59.67
       196   15.2280  5.813308   3644.00   3170.28     60.37
       197   15.2570  5.802323   3646.00   3160.92     60.38
       198   15.2860  5.791380   3536.00   3152.60     59.46
       199   15.3150  5.780479   3631.00   3145.19     60.26
       200   15.3440  5.769619   3592.00   3138.56     59.93
       201   15.3730  5.758801   3717.00   3132.60     60.97
       202   15.4020  5.748022   3724.00   3127.23     61.02
       203   15.4310  5.737286   3552.00   3122.38     59.60
       204   15.4600  5.726588   3473.00   3117.98     58.93
       205   15.4890  5.715931   3524.00   3114.00     59.36
       206   15.5180  5.705315   3511.00   3110.37     59.25
       207   15.5470  5.694738   3442.00   3057.19     58.67
       208   15.5760  5.684200   3527.00   3056.97     59.39
       209   15.6060  5.673341   3528.00   3056.79     59.40
       210   15.6350  5.662883   3546.00   3056.65     59.55
       211   15.6640  5.652464   3620.00   3056.56     60.17
       212   15.6930  5.642084   3579.00   3056.51     59.82
       213   15.7220  5.631742   3647.00   3056.50     60.39
       214   15.7510  5.621438   3576.00   3056.53     59.80
       215   15.7800  5.611173   3493.00   3056.60     59.10
       216   15.8090  5.600945   3657.00   3056.71     60.47
       217   15.8380  5.590755   3655.00   3056.87     60.46
       218   15.8670  5.580601   3718.00   3057.06     60.98
       219   15.8960  5.570486   3762.00   3057.31     61.34
       220   15.9250  5.560407   3827.00   3057.59     61.86
       221   15.9540  5.550364   4000.00   3057.91     63.25
       222   15.9830  5.540359   4117.00   3058.28     64.16
       223   16.0120  5.530391   4101.00   3101.74     64.04
       224   16.0410  5.520457   4107.00   3104.97     64.09
       225   16.0700  5.510561   4110.00   3108.52     64.11
       226   16.0990  5.500699   4069.00   3112.43     63.79
       227   16.1280  5.490873   3868.00   3116.75     62.19
       228   16.1570  5.481083   4032.00   3121.52     63.50
       229   16.1860  5.471327   4189.00   3126.82     64.72
       230   16.2150  5.461608   4275.00   3132.72     65.38
       231   16.2440  5.451923   4108.00   3139.32     64.09
       232   16.2730  5.442272   4189.00   3146.72     64.72
       233   16.3020  5.432655   4202.00   3155.07     64.82
       234   16.3320  5.422744   4103.00   3164.89     64.05
       235   16.3610  5.413197   3897.00   3175.76     62.43
       236   16.3900  5.403685   3764.00   3188.25     61.35
       237   16.4190  5.394206   3617.00   3202.74     60.14
       238   16.4480  5.384760   3621.00   3219.67     60.17
       239   16.4770  5.375348   3617.00   3239.69     60.14
       240   16.5060  5.365969   3748.00   3263.60     61.22
       241   16.5350  5.356624   3814.00   3292.57     61.76
       242   16.5640  5.347310   3915.00   3328.19     62.57
       243   16.5930  5.338030   3787.00   3372.81     61.54
       244   16.6220  5.328782   3880.00   3430.04     62.29
       245   16.6510  5.319566   4022.00   3505.89     63.42
       246   16.6800  5.310383   4103.00   3611.55     64.05
       247   16.7090  5.301231   4242.00   3768.44     65.13
       248   16.7380  5.292112   4584.00   4015.25     67.71
       249   16.7670  5.283024   4887.00   4411.73     69.91
       250   16.7960  5.273968   5487.00   5026.16     74.07
       251   16.8250  5.264942   6483.00   5917.67     80.52
       252   16.8540  5.255949   7873.00   7155.93     88.73
       253   16.8830  5.246986   9471.00   8833.74     97.32
       254   16.9120  5.238053  11931.00  10972.40    109.23
       255   16.9410  5.229152  14686.00  13257.20    121.19
       256   16.9700  5.220282  16938.00  14643.80    130.15
       257   16.9990  5.211441  16326.00  13570.10    127.77
       258   17.0280  5.202631  12178.00  10480.40    110.35
       259   17.0570  5.193851   7939.00   7603.82     89.10
       260   17.0870  5.184799   5414.00   5717.91     73.58
       261   17.1160  5.176080   4479.00   4738.65     66.93
       262   17.1450  5.167390   4107.00   4227.15     64.09
       263   17.1740  5.158730   4198.00   3939.65     64.79
       264   17.2030  5.150098   4117.00   3758.12     64.16
       265   17.2320  5.141497   3950.00   3633.29     62.85
       266   17.2610  5.132924   3786.00   3543.26     61.53
       267   17.2900  5.124379   3578.00   3476.42     59.82
       268   17.3190  5.115864   3523.00   3425.74     59.35
       269   17.3480  5.107378   3386.00   3386.70     58.19
       270   17.3770  5.098919   3166.00   3356.27     56.27
       271   17.4060  5.090489   3167.00   3332.37     56.28
       272   17.4350  5.082088   3229.00   3313.55     56.82
       273   17.4640  5.073713   3309.00   3298.77     57.52
       274   17.4930  5.065367   3412.00   3287.30     58.41
       275   17.5220  5.057049   3453.00   3278.62     58.76
       276   17.5510  5.048759   3305.00   3272.39     57.49
       277   17.5800  5.040495   3253.00   3268.39     57.04
       278   17.6090  5.032260   3142.00   3266.57     56.05
       279   17.6380  5.024051   3248.00   3267.04     56.99
       280   17.6670  5.015870   3287.00   3357.76     57.33
       281   17.6960  5.007715   3586.00   3369.83     59.88
       282   17.7250  4.999587   3556.00   3387.58     59.63
       283   17.7540  4.991486   3512.00   3414.40     59.26
       284   17.7830  4.983411   3571.00   3456.00     59.76
       285   17.8120  4.975363   3656.00   3520.23     60.46
       286   17.8420  4.967065   3679.00   3619.02     60.65
       287   17.8710  4.959069   3809.00   3754.07     61.72
       288   17.9000  4.951101   3902.00   3936.87     62.47
       289   17.9290  4.943158   4071.00   4167.24     63.80
       290   17.9580  4.935240   4216.00   4410.10     64.93
       291   17.9870  4.927349   4341.00   4523.51     65.89
       292   18.0160  4.919482   4234.00   4435.33     65.07
       293   18.0450  4.911642   4243.00   4158.77     65.14
       294   18.0740  4.903826   4082.00   3906.14     63.89
       295   18.1030  4.896036   4037.00   3756.84     63.54
       296   18.1320  4.888271   3678.00   3694.80     60.65
       297   18.1610  4.880530   3655.00   3687.37     60.46
       298   18.1900  4.872814   3487.00   3711.92     59.05
       299   18.2190  4.865124   3605.00   3758.73     60.04
       300   18.2480  4.857458   3816.00   3826.21     61.77
       301   18.2780  4.849552   3768.00   3917.38     61.38
       302   18.3070  4.841936   3920.00   4039.15     62.61
       303   18.3360  4.834342   4002.00   4204.34     63.26
       304   18.3650  4.826774   4326.00   4437.50     65.77
       305   18.3940  4.819230   4519.00   4786.49     67.22
       306   18.4230  4.811708   5036.00   5340.00     70.96
       307   18.4520  4.804212   5944.00   6242.83     77.10
       308   18.4810  4.796738   7081.00   7685.08     84.15
       309   18.5100  4.789289   8802.00   9860.64     93.82
       310   18.5390  4.781862  10903.00  12963.40    104.42
       311   18.5690  4.774204  14350.00  17288.20    119.79
       312   18.5980  4.766825  17811.00  22266.50    133.46
       313   18.6270  4.759469  21511.00  26604.90    146.67
       314   18.6560  4.752136  22684.00  27345.70    150.61
       315   18.6850  4.744826  20301.00  22652.40    142.48
       316   18.7140  4.737538  15579.00  16023.30    124.82
       317   18.7430  4.730274  10555.00  10945.00    102.74
       318   18.7720  4.723032   7605.00   7898.36     87.21
       319   18.8010  4.715811   5751.00   6270.87     75.84
       320   18.8300  4.708614   4875.00   5405.94     69.82
       321   18.8590  4.701439   4512.00   4902.12     67.17
       322   18.8880  4.694285   4268.00   4574.09     65.33
       323   18.9170  4.687155   4190.00   4344.13     64.73
       324   18.9460  4.680046   4400.00   4176.35     66.33
       325   18.9750  4.672958   4510.00   4050.93     67.16
       326   19.0040  4.665893   4697.00   3955.60     68.53
       327   19.0330  4.658848   4677.00   3878.96     68.39
       328   19.0620  4.651826   4743.00   3822.61     68.87
       329   19.0910  4.644825   4874.00   3779.25     69.81
       330   19.1200  4.637846   4893.00   3746.35     69.95
       331   19.1490  4.630887   4776.00   3722.17     69.11
       332   19.1780  4.623950   4661.00   3705.59     68.27
       333   19.2070  4.617034   4541.00   3696.02     67.39
       334   19.2360  4.610139   4562.00   3693.33     67.54
       335   19.2650  4.603264   4422.00   3697.91     66.50
       336   19.2940  4.596411   4487.00   3710.88     66.99
       337   19.3240  4.589343   4510.00   3735.66     67.16
       338   19.3530  4.582530   4535.00   3775.57     67.34
       339   19.3820  4.575739   4524.00   3840.96     67.26
       340   19.4110  4.568969   4817.00   3949.81     69.40
       341   19.4400  4.562218   5133.00   4131.33     71.64
       342   19.4690  4.555488   5363.00   4846.23     73.23
       343   19.4980  4.548778   5841.00   5317.07     76.43
       344   19.5270  4.542088   6212.00   5980.64     78.82
       345   19.5560  4.535418   6882.00   6843.82     82.96
       346   19.5850  4.528768   7669.00   7803.36     87.57
       347   19.6140  4.522137   7907.00   8533.58     88.92
       348   19.6430  4.515526   8133.00   8547.79     90.18
       349   19.6720  4.508934   7911.00   7914.79     88.94
       350   19.7010  4.502363   7649.00   7235.98     87.46
       351   19.7300  4.495811   6954.00   6911.22     83.39
       352   19.7590  4.489277   6489.00   6611.03     80.55
       353   19.7880  4.482763   5566.00   6130.88     74.61
       354   19.8170  4.476269   4721.00   5629.98     68.71
       355   19.8460  4.469793   4404.00   5291.92     66.36
       356   19.8750  4.463336   4568.00   5130.70     67.59
       357   19.9040  4.456899   4815.00   5098.27     69.39
       358   19.9330  4.450480   5166.00   5147.66     71.87
       359   19.9620  4.444080   5474.00   5251.53     73.99
       360   19.9910  4.437699   5660.00   5399.77     75.23
       361   20.0200  4.431335   6228.00   5592.29     78.92
       362   20.0490  4.424992   6718.00   5834.78     81.96
       363   20.0790  4.418447   7122.00   6149.19     84.39
       364   20.1080  4.412141   7204.00   6530.96     84.88
       365   20.1370  4.405852   7438.00   7012.99     86.24
       366   20.1660  4.399581   8006.00   7631.00     89.48
       367   20.1950  4.393329   8959.00   8441.96     94.65
       368   20.2240  4.387095  10383.00   9545.63    101.90
       369   20.2530  4.380878  12317.00  11132.70    110.98
       370   20.2820  4.374680  15173.00  13573.30    123.18
       371   20.3110  4.368499  19311.00  17542.10    138.96
       372   20.3400  4.362336  25642.00  24128.60    160.13
       373   20.3690  4.356191  35387.00  34761.50    188.11
       374   20.3980  4.350063  50206.00  50838.30    224.07
       375   20.4270  4.343953  73843.00  73155.80    271.74
       376   20.4560  4.337860 102892.00 100413.00    320.77
       377   20.4850  4.331784 130008.00 126256.00    360.57
       378   20.5140  4.325726 140811.00 136562.00    375.25
       379   20.5430  4.319685 123190.00 118339.00    350.98
       380   20.5720  4.313661  85593.00  83695.60    292.56
       381   20.6010  4.307654  51378.00  53584.90    226.67
       382   20.6300  4.301664  30053.00  34328.30    173.36
       383   20.6590  4.295691  19107.00  23954.00    138.23
       384   20.6880  4.289735  14462.00  18910.50    120.26
       385   20.7170  4.283795  12539.00  16496.50    111.98
       386   20.7460  4.277873  11824.00  14996.40    108.74
       387   20.7750  4.271966  10487.00  13327.90    102.41
       388   20.8040  4.266077   8944.00  11298.20     94.57
       389   20.8340  4.260002   7190.00   9408.46     84.79
       390   20.8630  4.254146   6254.00   8081.67     79.08
       391   20.8920  4.248306   5783.00   7185.59     76.05
       392   20.9210  4.242483   5470.00   6580.38     73.96
       393   20.9500  4.236675   5150.00   6149.11     71.76
       394   20.9790  4.230885   4838.00   5821.33     69.56
       395   21.0080  4.225110   4412.00   5560.57     66.42
       396   21.0370  4.219350   4086.00   5347.60     63.92
       397   21.0660  4.213607   3985.00   5170.78     63.13
       398   21.0950  4.207880   3969.00   5022.21     63.00
       399   21.1240  4.202168   3943.00   4896.25     62.79
       400   21.1530  4.196473   4009.00   4788.67     63.32
       401   21.1820  4.190794   3924.00   4696.35     62.64
       402   21.2110  4.185129   4037.00   4616.90     63.54
       403   21.2400  4.179481   4114.00   4548.38     64.14
       404   21.2690  4.173847   4384.00   4489.07     66.21
       405   21.2980  4.168229   4465.00   4437.06     66.82
       406   21.3270  4.162627   4722.00   4389.97     68.72
       407   21.3560  4.157040   4692.00   4345.55     68.50
       408   21.3850  4.151468   4719.00   4304.02     68.69
       409   21.4140  4.145911   4747.00   4266.84     68.90
       410   21.4430  4.140369   4519.00   4234.26     67.22
       411   21.4720  4.134843   4527.00   4205.73     67.28
       412   21.5010  4.129332   4676.00   4180.52     68.38
       413   21.5300  4.123835   4770.00   4158.06     69.07
       414   21.5600  4.118165   4709.00   4137.26     68.62
       415   21.5890  4.112698   4670.00   4119.20     68.34
       416   21.6180  4.107247   4856.00   3743.73     69.68
       417   21.6470  4.101810   4876.00   3746.96     69.83
       418   21.6760  4.096387   4864.00   3750.31     69.74
       419   21.7050  4.090980   4801.00   3753.74     69.29
       420   21.7340  4.085587   4692.00   3757.26     68.50
       421   21.7630  4.080208   4561.00   3760.85     67.54
       422   21.7920  4.074843   4449.00   3764.49     66.70
       423   21.8210  4.069494   4504.00   3768.19     67.11
       424   21.8500  4.064158   4658.00   3760.41     68.25
       425   21.8790  4.058836   4619.00   3764.76     67.96
       426   21.9080  4.053529   4570.00   3783.83     67.60
       427   21.9370  4.048236   4600.00   3788.99     67.82
       428   21.9660  4.042957   4393.00   3794.21     66.28
       429   21.9950  4.037692   4027.00   3799.49     63.46
       430   22.0240  4.032441   3683.00   3804.85     60.69
       431   22.0530  4.027204   3528.00   3810.30     59.40
       432   22.0820  4.021980   3452.00   3815.85     58.75
       433   22.1110  4.016771   3311.00   3821.51     57.54
       434   22.1400  4.011575   3553.00   3827.31     59.61
       435   22.1690  4.006393   3871.00   3833.27     62.22
       436   22.1980  4.001224   4070.00   3839.41     63.80
       437   22.2270  3.996069   4231.00   3845.76     65.05
       438   22.2560  3.990928   4351.00   3852.36     65.96
       439   22.2850  3.985800   4270.00   3859.26     65.35
       440   22.3150  3.980509   4455.00   3866.76     66.75
       441   22.3440  3.975409   4676.00   3874.44     68.38
       442   22.3730  3.970321   4774.00   3882.63     69.09
       443   22.4020  3.965247   4608.00   3891.44     67.88
       444   22.4310  3.960186   4531.00   3900.96     67.31
       445   22.4600  3.955138   4471.00   3911.45     66.87
       446   22.4890  3.950103   4505.00   3923.10     67.12
       447   22.5180  3.945082   4363.00   3936.21     66.05
       448   22.5470  3.940073   4404.00   3951.19     66.36
       449   22.5760  3.935077   4778.00   3968.61     69.12
       450   22.6050  3.930095   4961.00   3989.25     70.43
       451   22.6340  3.925124   5166.00   4014.25     71.87
       452   22.6630  3.920167   5087.00   4045.33     71.32
       453   22.6920  3.915223   4904.00   4085.39     70.03
       454   22.7210  3.910291   4763.00   4143.81     69.01
       455   22.7500  3.905372   4503.00   4223.19     67.10
       456   22.7790  3.900466   4394.00   4347.90     66.29
       457   22.8080  3.895572   4850.00   4554.95     69.64
       458   22.8370  3.890691   5049.00   4902.24     71.06
       459   22.8660  3.885822   5369.00   5458.08     73.27
       460   22.8950  3.880965   6094.00   6264.04     78.06
       461   22.9240  3.876122   6832.00   7274.99     82.66
       462   22.9530  3.871290   7718.00   8273.22     87.85
       463   22.9820  3.866470   8264.00   8791.56     90.91
       464   23.0110  3.861663   7520.00   8339.14     86.72
       465   23.0400  3.856868   6552.00   7169.18     80.94
       466   23.0700  3.851921   5656.00   5980.48     75.21
       467   23.0990  3.847150   5260.00   5181.92     72.53
       468   23.1280  3.842391   4676.00   4712.50     68.38
       469   23.1570  3.837645   4475.00   4459.99     66.90
       470   23.1860  3.832911   4245.00   4323.60     65.15
       471   23.2150  3.828188   4153.00   4243.38     64.44
       472   23.2440  3.823478   4100.00   4191.24     64.03
       473   23.2730  3.818779   4007.00   4155.15     63.30
       474   23.3020  3.814092   3934.00   4129.50     62.72
       475   23.3320  3.809256   3969.00   4111.20     63.00
       476   23.3610  3.804593   3958.00   4098.37     62.91
       477   23.3900  3.799941   4191.00   4089.80     64.74
       478   23.4190  3.795301   4357.00   4084.72     66.01
       479   23.4480  3.790673   4186.00   4082.71     64.70
       480   23.4770  3.786056   4343.00   4093.71     65.90
       481   23.5060  3.781450   4300.00   4098.22     65.57
       482   23.5350  3.776857   4264.00   4106.40     65.30
       483   23.5640  3.772274   4238.00   4119.59     65.10
       484   23.5930  3.767703   4127.00   4145.21     64.24
       485   23.6220  3.763143   4012.00   4180.32     63.34
       486   23.6510  3.758594   3985.00   4240.11     63.13
       487   23.6800  3.754057   4169.00   4341.81     64.57
       488   23.7090  3.749531   4538.00   4505.91     67.36
       489   23.7380  3.745015   5037.00   4743.96     70.97
       490   23.7670  3.740511   5416.00   5039.45     73.59
       491   23.7970  3.735863   5762.00   5332.48     75.91
       492   23.8260  3.731382   5567.00   5461.99     74.61
       493   23.8550  3.726912   5190.00   5313.10     72.04
       494   23.8840  3.722452   4702.00   4978.64     68.57
       495   23.9130  3.718003   4795.00   4658.44     69.25
       496   23.9420  3.713565   4611.00   4435.64     67.90
       497   23.9710  3.709138   4735.00   4305.60     68.81
       498   24.0000  3.704722   4667.00   4237.58     68.32
       499   24.0290  3.700317   4623.00   4203.47     67.99
       500   24.0580  3.695922   4637.00   4190.37     68.10
       501   24.0870  3.691538   4714.00   4182.42     68.66
       502   24.1160  3.687164   4816.00   4180.16     69.40
       503   24.1450  3.682801   4695.00   4169.90     68.52
       504   24.1740  3.678449   4532.00   4176.36     67.32
       505   24.2030  3.674107   4594.00   4217.33     67.78
       506   24.2320  3.669775   4635.00   4233.17     68.08
       507   24.2610  3.665455   4914.00   4253.91     70.10
       508   24.2900  3.661144   5087.00   4280.92     71.32
       509   24.3190  3.656844   5199.00   4316.59     72.10
       510   24.3480  3.652554   5285.00   4365.45     72.70
       511   24.3770  3.648274   5110.00   4436.53     71.48
       512   24.4060  3.644005   5184.00   4547.53     72.00
       513   24.4350  3.639746   5377.00   4730.67     73.33
       514   24.4640  3.635497   5592.00   5036.43     74.78
       515   24.4930  3.631258   5610.00   5523.82     74.90
       516   24.5220  3.627029   6322.00   6225.74     79.51
       517   24.5520  3.622665   7370.00   7128.39     85.85
       518   24.5810  3.618457   8129.00   7980.21     90.16
       519   24.6100  3.614259   8473.00   8453.44     92.05
       520   24.6390  3.610070   8507.00   8287.90     92.23
       521   24.6680  3.605892   8215.00   7751.04     90.64
       522   24.6970  3.601723   7690.00   7188.04     87.69
       523   24.7260  3.597564   6603.00   6600.35     81.26
       524   24.7550  3.593416   5884.00   5964.76     76.71
       525   24.7840  3.589277   5002.00   5417.84     70.72
       526   24.8130  3.585148   4705.00   5039.29     68.59
       527   24.8420  3.581028   4295.00   4813.52     65.54
       528   24.8710  3.576918   4228.00   4695.96     65.02
       529   24.9000  3.572818   3846.00   4645.85     62.02
       530   24.9290  3.568727   3864.00   4637.63     62.16
       531   24.9580  3.564646   3877.00   4660.89     62.27
       532   24.9870  3.560575   4361.00   4713.19     66.04
       533   25.0160  3.556513   4865.00   4813.05     69.75
       534   25.0450  3.552460   4806.00   4979.29     69.33
       535   25.0740  3.548417   4718.00   5246.64     68.69
       536   25.1030  3.544383   4712.00   5657.29     68.64
       537   25.1320  3.540359   5178.00   6257.96     71.96
       538   25.1610  3.536345   5980.00   7071.91     77.33
       539   25.1900  3.532339   7080.00   8122.34     84.14
       540   25.2190  3.528343   8827.00   9429.06     93.95
       541   25.2480  3.524356  11013.00  11090.50    104.94
       542   25.2770  3.520378  14310.00  13080.90    119.62
       543   25.3070  3.516273  16792.00  14883.60    129.58
       544   25.3360  3.512314  17651.00  15227.70    132.86
       545   25.3650  3.508364  15716.00  13531.10    125.36
       546   25.3940  3.504423  12243.00  10829.40    110.65
       547   25.4230  3.500491   9254.00   8439.90     96.20
       548   25.4520  3.496568   6847.00   6809.99     82.75
       549   25.4810  3.492654   5679.00   5838.35     75.36
       550   25.5100  3.488750   4855.00   5303.30     69.68
       551   25.5390  3.484854   4532.00   5004.63     67.32
       552   25.5680  3.480967   4311.00   4822.50     65.66
       553   25.5970  3.477089   4142.00   4699.51     64.36
       554   25.6260  3.473220   3932.00   4610.47     62.71
       555   25.6550  3.469359   3830.00   4543.54     61.89
       556   25.6840  3.465508   3521.00   4492.17     59.34
       557   25.7130  3.461665   3549.00   4452.25     59.57
       558   25.7420  3.457831   3614.00   4421.03     60.12
       559   25.7710  3.454005   3580.00   4396.61     59.83
       560   25.8000  3.450189   3409.00   4368.87     58.39
       561   25.8290  3.446381   3283.00   4354.93     57.30
       562   25.8580  3.442581   3167.00   4344.98     56.28
       563   25.8870  3.438791   3205.00   4334.72     56.61
       564   25.9160  3.435008   3238.00   4332.15     56.90
       565   25.9450  3.431234   3418.00   4333.29     58.46
       566   25.9740  3.427469   3623.00   4338.62     60.19
       567   26.0030  3.423712   3757.00   4349.16     61.29
       568   26.0330  3.419835   3704.00   4367.85     60.86
       569   26.0620  3.416095   3763.00   4398.05     61.34
       570   26.0910  3.412364   3744.00   4449.51     61.19
       571   26.1200  3.408641   3929.00   4539.52     62.68
       572   26.1490  3.404927   4259.00   4695.46     65.26
       573   26.1780  3.401221   4397.00   4949.41     66.31
       574   26.2070  3.397522   4747.00   5319.60     68.90
       575   26.2360  3.393833   5248.00   5766.44     72.44
       576   26.2650  3.390151   5698.00   6177.82     75.49
       577   26.2940  3.386478   5697.00   6352.69     75.48
       578   26.3230  3.382813   5836.00   6141.34     76.39
       579   26.3520  3.379156   5069.00   5691.11     71.20
       580   26.3810  3.375507   4868.00   5268.68     69.77
       581   26.4100  3.371866   4692.00   4995.16     68.50
       582   26.4390  3.368234   4594.00   4899.46     67.78
       583   26.4680  3.364609   4904.00   4976.13     70.03
       584   26.4970  3.360992   5407.00   5237.49     73.53
       585   26.5260  3.357383   6377.00   5677.05     79.86
       586   26.5550  3.353782   7517.00   6328.88     86.70
       587   26.5840  3.350190   8848.00   7042.43     94.06
       588   26.6130  3.346605   9076.00   7549.65     95.27
       589   26.6420  3.343028   8267.00   7504.23     90.92
       590   26.6710  3.339459   6855.00   6865.71     82.79
       591   26.7000  3.335897   5588.00   6040.51     74.75
       592   26.7290  3.332344   4464.00   5359.28     66.81
       593   26.7580  3.328798   3972.00   4904.46     63.02
       594   26.7880  3.325138   3606.00   4630.76     60.05
       595   26.8170  3.321608   3747.00   4486.10     61.21
       596   26.8460  3.318086   3835.00   4403.88     61.93
       597   26.8750  3.314571   3657.00   4352.65     60.47
       598   26.9040  3.311064   3572.00   4317.56     59.77
       599   26.9330  3.307564   3433.00   4292.11     58.59
       600   26.9620  3.304073   3586.00   4273.21     59.88
       601   26.9910  3.300589   3736.00   4259.18     61.12
       602   27.0200  3.297112   3747.00   4249.05     61.21
       603   27.0490  3.293643   3869.00   4242.27     62.20
       604   27.0780  3.290181   3853.00   4286.33     62.07
       605   27.1070  3.286727   3902.00   4288.49     62.47
       606   27.1360  3.283280   3795.00   4295.13     61.60
       607   27.1650  3.279841   4036.00   4308.51     63.53
       608   27.1940  3.276409   4139.00   4333.44     64.34
       609   27.2230  3.272985   4312.00   4378.98     65.67
       610   27.2520  3.269567   4529.00   4459.25     67.30
       611   27.2810  3.266158   4767.00   4590.14     69.04
       612   27.3100  3.262755   5460.00   4777.84     73.89
       613   27.3390  3.259360   5922.00   5001.55     76.95
       614   27.3680  3.255972   6220.00   5198.87     78.87
       615   27.3970  3.252592   6206.00   5268.25     78.78
       616   27.4260  3.249218   5676.00   5145.40     75.34
       617   27.4550  3.245852   4934.00   4910.23     70.24
       618   27.4850  3.242377   4351.00   4686.15     65.96
       619   27.5140  3.239025   3799.00   4520.77     61.64
       620   27.5440  3.235566   3620.00   4422.33     60.17
       621   27.5730  3.232229   3898.00   4373.59     62.43
       622   27.6020  3.228899   3972.00   4351.58     63.02
       623   27.6310  3.225575   3975.00   4344.03     63.05
       624   27.6600  3.222259   3975.00   4344.74     63.05
       625   27.6890  3.218951   4024.00   4351.16     63.44
       626   27.7180  3.215648   4069.00   4362.40     63.79
       627   27.7470  3.212353   4014.00   4378.34     63.36
       628   27.7760  3.209065   3966.00   4399.31     62.98
       629   27.8050  3.205784   3758.00   4425.97     61.30
       630   27.8340  3.202510   3969.00   4459.38     63.00
       631   27.8630  3.199242   4068.00   4493.07     63.78
       632   27.8920  3.195982   4334.00   4545.59     65.83
       633   27.9210  3.192729   4511.00   4611.66     67.16
       634   27.9500  3.189482   4519.00   4695.82     67.22
       635   27.9790  3.186242   4822.00   4805.13     69.44
       636   28.0080  3.183008   5506.00   4951.62     74.20
       637   28.0370  3.179782   5793.00   5158.46     76.11
       638   28.0660  3.176562   6390.00   5473.17     79.94
       639   28.0950  3.173349   7259.00   5991.58     85.20
       640   28.1240  3.170143   8638.00   6888.15     92.94
       641   28.1530  3.166943  10846.00   8426.48    104.14
       642   28.1820  3.163750  14401.00  10891.00    120.00
       643   28.2110  3.160564  19946.00  14360.40    141.23
       644   28.2400  3.157384  26036.00  18402.20    161.36
       645   28.2690  3.154211  30637.00  21822.50    175.03
       646   28.2990  3.150935  28573.00  22765.50    169.04
       647   28.3280  3.147775  21431.00  20219.50    146.39
       648   28.3570  3.144622  14180.00  15888.10    119.08
       649   28.3860  3.141475   9175.00  11848.10     95.79
       650   28.4150  3.138335   6563.00   8928.67     81.01
       651   28.4440  3.135201   5232.00   7114.72     72.33
       652   28.4730  3.132074   4783.00   6086.39     69.16
       653   28.5020  3.128953   4483.00   5513.79     66.96
       654   28.5310  3.125839   4282.00   5174.40     65.44
       655   28.5600  3.122730   4255.00   4951.44     65.23
       656   28.5890  3.119629   4095.00   4796.72     63.99
       657   28.6180  3.116533   4087.00   4675.95     63.93
       658   28.6470  3.113445   4190.00   4579.35     64.73
       659   28.6760  3.110362   4179.00   4504.41     64.65
       660   28.7050  3.107285   4369.00   4443.73     66.10
       661   28.7340  3.104215   4147.00   4393.91     64.40
       662   28.7630  3.101151   4327.00   4352.48     65.78
       663   28.7920  3.098094   4190.00   4317.67     64.73
       664   28.8210  3.095042   4041.00   4288.16     63.57
       665   28.8500  3.091997   4005.00   4262.95     63.29
       666   28.8790  3.088958   3829.00   4241.31     61.88
       667   28.9080  3.085925   3492.00   4222.67     59.09
       668   28.9370  3.082898   3557.00   4206.59     59.64
       669   28.9660  3.079878   3437.00   4192.77     58.63
       670   28.9950  3.076863   3350.00   4181.00     57.88
       671   29.0250  3.073751   3260.00   4170.84     57.10
       672   29.0540  3.070749   3089.00   4162.94     55.58
       673   29.0830  3.067753   3133.00   4157.02     55.97
       674   29.1120  3.064763   3325.00   4153.35     57.66
       675   29.1410  3.061779   3433.00   4152.54     58.59
       676   29.1700  3.058801   3642.00   4155.96     60.35
       677   29.1990  3.055829   3765.00   4166.50     61.36
       678   29.2280  3.052863   3923.00   4189.81     62.63
       679   29.2570  3.049903   3859.00   4235.27     62.12
       680   29.2860  3.046949   3993.00   4320.73     63.19
       681   29.3150  3.044000   4256.00   4443.94     65.24
       682   29.3440  3.041058   4624.00   4604.17     68.00
       683   29.3730  3.038121   4690.00   4767.66     68.48
       684   29.4020  3.035191   4440.00   4868.67     66.63
       685   29.4310  3.032266   3951.00   4839.02     62.86
       686   29.4600  3.029347   3447.00   4690.94     58.71
       687   29.4890  3.026434   2962.00   4513.60     54.42
       688   29.5180  3.023526   2735.00   4371.00     52.30
       689   29.5470  3.020625   2934.00   4281.02     54.17
       690   29.5760  3.017729   3175.00   4197.52     56.35
       691   29.6050  3.014839   3280.00   4198.48     57.27
       692   29.6340  3.011955   3351.00   4239.94     57.89
       693   29.6630  3.009076   3342.00   4335.61     57.81
       694   29.6920  3.006203   3561.00   4511.88     59.67
       695   29.7210  3.003336   3941.00   4795.90     62.78
       696   29.7500  3.000474   4783.00   5188.62     69.16
       697   29.7800  2.997520   5539.00   5644.92     74.42
       698   29.8090  2.994670   5840.00   5982.72     76.42
       699   29.8380  2.991825   5503.00   6023.12     74.18
       700   29.8670  2.988986   4863.00   5714.51     69.74
       701   29.8960  2.986153   4332.00   5237.61     65.82
       702   29.9250  2.983325   3961.00   4802.66     62.94
       703   29.9540  2.980502   3921.00   4487.74     62.62
       704   29.9830  2.977685   3826.00   4290.50     61.85
       705   30.0120  2.974874   3633.00   4177.43     60.27
       706   30.0410  2.972069   3518.00   4114.44     59.31
       707   30.0700  2.969268   3451.00   4078.85     58.75
       708   30.0990  2.966473   3451.00   4056.26     58.75
       709   30.1280  2.963684   3437.00   4041.81     58.63
       710   30.1570  2.960900   3562.00   4033.10     59.68
       711   30.1860  2.958121   3629.00   4029.21     60.24
       712   30.2150  2.955348   3420.00   4030.00     58.48
       713   30.2440  2.952580   3575.00   4035.99     59.79
       714   30.2730  2.949818   3508.00   4048.73     59.23
       715   30.3020  2.947061   3663.00   4071.78     60.52
       716   30.3310  2.944309   3836.00   4112.88     61.94
       717   30.3600  2.941563   4032.00   4187.33     63.50
       718   30.3890  2.938822   4474.00   4321.01     66.89
       719   30.4180  2.936086   5076.00   4548.38     71.25
       720   30.4470  2.933356   5920.00   4898.08     76.94
       721   30.4760  2.930630   7086.00   5361.10     84.18
       722   30.5050  2.927910   8070.00   5853.13     89.83
       723   30.5350  2.925102   8638.00   6203.58     92.94
       724   30.5640  2.922393   8176.00   6179.91     90.42
       725   30.5930  2.919688   6699.00   5783.08     81.85
       726   30.6220  2.916989   5682.00   5251.33     75.38
       727   30.6510  2.914295   4757.00   4787.04     68.97
       728   30.6800  2.911607   4194.00   4458.65     64.76
       729   30.7090  2.908923   4049.00   4255.19     63.63
       730   30.7380  2.906245   3753.00   4143.33     61.26
       731   30.7670  2.903572   3782.00   4085.22     61.50
       732   30.7960  2.900904   3794.00   4057.21     61.60
       733   30.8250  2.898240   3822.00   4047.90     61.82
       734   30.8540  2.895582   3812.00   4054.43     61.74
       735   30.8830  2.892930   4152.00   4080.18     64.44
       736   30.9120  2.890281   4264.00   4134.73     65.30
       737   30.9410  2.887638   4662.00   4235.04     68.28
       738   30.9700  2.885001   5035.00   4405.16     70.96
       739   30.9990  2.882368   5572.00   4671.08     74.65
       740   31.0280  2.879740   6421.00   5047.04     80.13
       741   31.0570  2.877117   7844.00   5512.45     88.57
       742   31.0870  2.874409   8914.00   5994.79     94.41
       743   31.1160  2.871796   8971.00   6376.89     94.72
       744   31.1450  2.869188   7899.00   6488.68     88.88
       745   31.1740  2.866585   6222.00   6224.11     78.88
       746   31.2030  2.863987   4925.00   5714.41     70.18
       747   31.2320  2.861393   4180.00   5211.50     64.65
       748   31.2620  2.858716   4114.00   4837.54     64.14
       749   31.2910  2.856133   4089.00   4627.30     63.95
       750   31.3200  2.853554   4120.00   4518.31     64.19
       751   31.3490  2.850981   4006.00   4450.25     63.29
       752   31.3780  2.848412   4018.00   4367.36     63.39
       753   31.4070  2.845848   3884.00   4249.55     62.32
       754   31.4360  2.843288   3713.00   4123.34     60.93
       755   31.4650  2.840734   3607.00   4017.39     60.06
       756   31.4940  2.838185   3574.00   3940.98     59.78
       757   31.5230  2.835639   3646.00   3891.49     60.38
       758   31.5520  2.833099   3611.00   3862.09     60.09
       759   31.5810  2.830564   3637.00   3846.55     60.31
       760   31.6100  2.828033   3570.00   3841.57     59.75
       761   31.6390  2.825507   3611.00   3847.71     60.09
       762   31.6680  2.822986   3584.00   3870.19     59.87
       763   31.6970  2.820469   3813.00   3919.90     61.75
       764   31.7260  2.817957   3716.00   4012.89     60.96
       765   31.7550  2.815450   3804.00   4165.09     61.68
       766   31.7840  2.812947   3802.00   4379.17     61.66
       767   31.8130  2.810449   3889.00   4626.02     62.36
       768   31.8420  2.807956   4048.00   4831.01     63.62
       769   31.8710  2.805467   4251.00   4882.64     65.20
       770   31.9000  2.802982   4237.00   4739.08     65.09
       771   31.9290  2.800503   4015.00   4476.81     63.36
       772   31.9580  2.798028   3787.00   4214.14     61.54
       773   31.9870  2.795557   3603.00   4009.62     60.03
       774   32.0170  2.793006   3599.00   3868.41     59.99
       775   32.0460  2.790545   3539.00   3785.62     59.49
       776   32.0750  2.788087   3720.00   3736.37     60.99
       777   32.1040  2.785635   3770.00   3705.58     61.40
       778   32.1330  2.783187   3577.00   3684.27     59.81
       779   32.1620  2.780744   3620.00   3667.93     60.17
       780   32.1910  2.778305   3545.00   3654.49     59.54
       781   32.2200  2.775871   3631.00   3646.27     60.26
       782   32.2490  2.773441   3623.00   3636.24     60.19
       783   32.2780  2.771015   3555.00   3627.23     59.62
       784   32.3070  2.768594   3560.00   3619.00     59.67
       785   32.3360  2.766177   3512.00   3611.39     59.26
       786   32.3650  2.763764   3646.00   3604.26     60.38
       787   32.3940  2.761356   3692.00   3596.63     60.76
       788   32.4230  2.758953   3671.00   3590.26     60.59
       789   32.4520  2.756553   3664.00   3584.16     60.53
       790   32.4810  2.754158   3606.00   3573.04     60.05
       791   32.5100  2.751768   3738.00   3567.59     61.14
       792   32.5390  2.749382   3838.00   3562.29     61.95
       793   32.5680  2.747000   3845.00   3557.12     62.01
       794   32.5970  2.744622   3817.00   3552.08     61.78
       795   32.6260  2.742249   3837.00   3546.90     61.94
       796   32.6550  2.739880   3807.00   3542.09     61.70
       797   32.6840  2.737515   3923.00   3537.38     62.63
       798   32.7130  2.735154   3745.00   3531.93     61.20
       799   32.7420  2.732797   3769.00   3527.45     61.39
       800   32.7720  2.730365   3738.00   3522.92     61.14
       801   32.8010  2.728017   3946.00   3518.65     62.82
       802   32.8300  2.725673   3991.00   3514.50     63.17
       803   32.8590  2.723334   3849.00   3510.47     62.04
       804   32.8880  2.720999   3852.00   3506.58     62.06
       805   32.9170  2.718668   3785.00   3502.84     61.52
       806   32.9460  2.716341   3859.00   3499.30     62.12
       807   32.9750  2.714018   3887.00   3495.96     62.35
       808   33.0040  2.711699   3948.00   3495.95     62.83
       809   33.0330  2.709385   3917.00   3493.31     62.59
       810   33.0620  2.707075   3821.00   3491.06     61.81
       811   33.0910  2.704769   3918.00   3489.27     62.59
       812   33.1200  2.702467   3844.00   3488.08     62.00
       813   33.1490  2.700169   3700.00   3497.01     60.83
       814   33.1780  2.697875   3926.00   3497.93     62.66
       815   33.2070  2.695585   3912.00   3500.16     62.55
       816   33.2360  2.693299   3795.00   3501.68     61.60
       817   33.2650  2.691017   3898.00   3508.38     62.43
       818   33.2940  2.688740   3962.00   3519.26     62.94
       819   33.3230  2.686466   4156.00   3537.54     64.47
       820   33.3520  2.684196   4186.00   3569.75     64.70
       821   33.3810  2.681931   4462.00   3627.67     66.80
       822   33.4100  2.679669   4773.00   3728.95     69.09
       823   33.4390  2.677411   5009.00   3893.36     70.77
       824   33.4680  2.675158   5450.00   4131.46     73.82
       825   33.4970  2.672908   6052.00   4425.20     77.79
       826   33.5270  2.670585   6900.00   4718.40     83.07
       827   33.5560  2.668343   7303.00   4870.71     85.46
       828   33.5850  2.666105   7154.00   4807.31     84.58
       829   33.6140  2.663871   6118.00   4543.13     78.22
       830   33.6430  2.661641   5408.00   4225.73     73.54
       831   33.6720  2.659415   4692.00   3952.98     68.50
       832   33.7010  2.657193   4215.00   3757.03     64.92
       833   33.7300  2.654975   4018.00   3632.67     63.39
       834   33.7590  2.652760   4026.00   3559.95     63.45
       835   33.7880  2.650550   4083.00   3518.70     63.90
       836   33.8170  2.648343   4178.00   3494.65     64.64
       837   33.8460  2.646140   3998.00   3479.88     63.23
       838   33.8750  2.643941   3983.00   3475.04     63.11
       839   33.9040  2.641746   3886.00   3469.77     62.34
       840   33.9330  2.639555   3950.00   3467.66     62.85
       841   33.9620  2.637367   3967.00   3468.50     62.98
       842   33.9910  2.635183   4061.00   3472.34     63.73
       843   34.0200  2.633003   3971.00   3479.49     63.02
       844   34.0490  2.630827   4034.00   3490.60     63.51
       845   34.0780  2.628654   4350.00   3506.90     65.95
       846   34.1070  2.626486   4287.00   3530.79     65.48
       847   34.1360  2.624321   4455.00   3566.99     66.75
       848   34.1650  2.622159   4526.00   3624.33     67.28
       849   34.1940  2.620002   4359.00   3717.44     66.02
       850   34.2230  2.617848   4892.00   3866.24     69.94
       851   34.2530  2.615624   5526.00   4100.22     74.34
       852   34.2820  2.613477   6579.00   4412.91     81.11
       853   34.3110  2.611335   7629.00   4793.96     87.34
       854   34.3410  2.609122   8645.00   5193.24     92.98
       855   34.3700  2.606987   9564.00   5548.57     97.80
       856   34.3990  2.604856  10052.00   5879.43    100.26
       857   34.4280  2.602728   9935.00   6280.14     99.67
       858   34.4570  2.600603   9741.00   6848.00     98.70
       859   34.4860  2.598483  10106.00   7484.90    100.53
       860   34.5150  2.596366  10350.00   7898.33    101.74
       861   34.5440  2.594253  10023.00   7763.47    100.11
       862   34.5730  2.592143   8542.00   7070.01     92.42
       863   34.6020  2.590037   7158.00   6158.16     84.61
       864   34.6310  2.587934   6296.00   5353.71     79.35
       865   34.6600  2.585835   5329.00   4755.44     73.00
       866   34.6890  2.583740   4746.00   4393.47     68.89
       867   34.7180  2.581648   4644.00   4234.11     68.15
       868   34.7470  2.579560   4775.00   4245.94     69.10
       869   34.7760  2.577475   5131.00   4428.13     71.63
       870   34.8050  2.575394   5872.00   4820.45     76.63
       871   34.8340  2.573316   6735.00   5456.57     82.07
       872   34.8630  2.571242   8197.00   6352.89     90.54
       873   34.8920  2.569171  10039.00   7431.05    100.19
       874   34.9210  2.567104  11265.00   8436.08    106.14
       875   34.9500  2.565040  11327.00   9022.51    106.43
       876   34.9790  2.562980  10610.00   8862.26    103.00
       877   35.0090  2.560853   9117.00   7960.56     95.48
       878   35.0380  2.558800   7572.00   6832.15     87.02
       879   35.0670  2.556750   6203.00   5838.21     78.76
       880   35.0960  2.554703   5472.00   5161.05     73.97
       881   35.1250  2.552661   5187.00   4831.77     72.02
       882   35.1540  2.550621   5065.00   4808.07     71.17
       883   35.1830  2.548585   5114.00   5008.28     71.51
       884   35.2120  2.546552   5661.00   5313.80     75.24
       885   35.2410  2.544523   6100.00   5560.29     78.10
       886   35.2700  2.542498   6341.00   5573.05     79.63
       887   35.2990  2.540475   5863.00   5299.38     76.57
       888   35.3280  2.538456   5290.00   4873.30     72.73
       889   35.3570  2.536441   4682.00   4457.74     68.43
       890   35.3860  2.534428   4332.00   4135.41     65.82
       891   35.4150  2.532419   4105.00   3928.27     64.07
       892   35.4440  2.530414   4311.00   3810.43     65.66
       893   35.4730  2.528412   4244.00   3761.22     65.15
       894   35.5020  2.526413   4315.00   3760.30     65.69
       895   35.5310  2.524417   4514.00   3799.34     67.19
       896   35.5600  2.522425   4552.00   3885.07     67.47
       897   35.5890  2.520436   4823.00   4042.99     69.45
       898   35.6180  2.518450   5182.00   4321.46     71.99
       899   35.6470  2.516468   5994.00   4789.82     77.42
       900   35.6760  2.514489   6527.00   5518.77     80.79
       901   35.7050  2.512513   7618.00   6537.43     87.28
       902   35.7340  2.510540   9000.00   7759.16     94.87
       903   35.7640  2.508503  10902.00   8960.49    104.41
       904   35.7930  2.506537  12619.00   9627.90    112.33
       905   35.8220  2.504575  13736.00   9507.76    117.20
       906   35.8510  2.502615  13796.00   8816.29    117.46
       907   35.8800  2.500659  12973.00   8129.47    113.90
       908   35.9090  2.498705  12364.00   7904.17    111.19
       909   35.9380  2.496756  12480.00   8327.66    111.71
       910   35.9670  2.494809  13595.00   9338.53    116.60
       911   35.9960  2.492866  15287.00  10633.80    123.64
       912   36.0250  2.490925  16962.00  11638.80    130.24
       913   36.0540  2.488988  16736.00  11777.00    129.37
       914   36.0830  2.487054  14374.00  11001.10    119.89
       915   36.1120  2.485123  11855.00   9908.40    108.88
       916   36.1410  2.483196  10480.00   9118.13    102.37
       917   36.1700  2.481272   9797.00   8918.65     98.98
       918   36.1990  2.479350   9891.00   9284.17     99.45
       919   36.2280  2.477432  10530.00   9952.37    102.62
       920   36.2570  2.475517  11290.00  10577.30    106.25
       921   36.2860  2.473605  11742.00  10923.40    108.36
       922   36.3150  2.471696  12209.00  10841.10    110.49
       923   36.3440  2.469790  11740.00  10273.20    108.35
       924   36.3730  2.467887  11390.00   9479.13    106.72
       925   36.4020  2.465988  10546.00   8814.80    102.69
       926   36.4310  2.464092  10009.00   8418.80    100.04
       927   36.4600  2.462198  10035.00   8104.42    100.18
       928   36.4900  2.460243   9724.00   7568.90     98.61
       929   36.5190  2.458355   9369.00   6771.27     96.79
       930   36.5480  2.456471   8146.00   5889.57     90.26
       931   36.5770  2.454590   6422.00   5120.10     80.14
       932   36.6060  2.452712   5197.00   4549.29     72.09
       933   36.6350  2.450837   4264.00   4188.26     65.30
       934   36.6640  2.448965   4356.00   4016.28     66.00
       935   36.6930  2.447096   4399.00   4010.98     66.32
       936   36.7220  2.445230   4668.00   4157.29     68.32
       937   36.7510  2.443367   4749.00   4454.29     68.91
       938   36.7800  2.441507   4719.00   4864.12     68.69
       939   36.8090  2.439650   5090.00   5296.28     71.34
       940   36.8380  2.437796   5013.00   5589.33     70.80
       941   36.8670  2.435945   5152.00   5574.47     71.78
       942   36.8960  2.434097   5164.00   5236.61     71.86
       943   36.9250  2.432252   5597.00   4748.11     74.81
       944   36.9540  2.430410   5082.00   4288.89     71.29
       945   36.9830  2.428570   4524.00   3951.87     67.26
       946   37.0120  2.426734   4271.00   3761.52     65.35
       947   37.0410  2.424901   4290.00   3702.62     65.50
       948   37.0700  2.423070   4382.00   3737.36     66.20
       949   37.0990  2.421243   4298.00   3813.80     65.56
       950   37.1280  2.419418   4296.00   3872.56     65.54
       951   37.1570  2.417596   4395.00   3871.87     66.29
       952   37.1860  2.415778   4140.00   3829.84     64.34
       953   37.2150  2.413962   3909.00   3813.95     62.52
       954   37.2450  2.412086   3571.00   3886.61     59.76
       955   37.2740  2.410276   3600.00   4049.48     60.00
       956   37.3040  2.408406   3799.00   4292.24     61.64
       957   37.3330  2.406602   4075.00   4512.19     63.84
       958   37.3620  2.404801   4359.00   4583.42     66.02
       959   37.3910  2.403003   4430.00   4432.96     66.56
       960   37.4200  2.401207   4327.00   4126.23     65.78
       961   37.4490  2.399414   4270.00   3785.19     65.35
       962   37.4780  2.397624   4229.00   3497.44     65.03
       963   37.5070  2.395837   3983.00   3267.10     63.11
       964   37.5360  2.394052   3808.00   3126.06     61.71
       965   37.5650  2.392271   3575.00   3041.31     59.79
       966   37.5940  2.390492   3374.00   2995.03     58.09
       967   37.6230  2.388716   3388.00   2978.45     58.21
       968   37.6520  2.386943   3339.00   2981.13     57.78
       969   37.6810  2.385172   3307.00   3008.47     57.51
       970   37.7100  2.383404   3413.00   3059.59     58.42
       971   37.7390  2.381640   3482.00   3148.22     59.01
       972   37.7680  2.379878   3489.00   3260.67     59.07
       973   37.7970  2.378118   3658.00   3362.72     60.48
       974   37.8260  2.376362   3754.00   3431.38     61.27
       975   37.8550  2.374608   3951.00   3415.77     62.86
       976   37.8840  2.372857   3944.00   3327.49     62.80
       977   37.9130  2.371108   3902.00   3193.03     62.47
       978   37.9420  2.369363   3697.00   3057.53     60.80
       979   37.9710  2.367620   3581.00   2955.59     59.84
       980   38.0010  2.365820   3440.00   2881.86     58.65
       981   38.0300  2.364082   3214.00   2836.16     56.69
       982   38.0590  2.362348   3204.00   2807.80     56.60
       983   38.0880  2.360615   3006.00   2789.93     54.83
       984   38.1170  2.358886   3120.00   2777.94     55.86
       985   38.1460  2.357159   3089.00   2769.24     55.58
       986   38.1750  2.355435   3200.00   2762.56     56.57
       987   38.2040  2.353714   3154.00   2766.97     56.16
       988   38.2330  2.351995   3174.00   2763.21     56.34
       989   38.2620  2.350279   3036.00   2761.63     55.10
       990   38.2910  2.348566   3104.00   2759.86     55.71
       991   38.3200  2.346856   3112.00   2759.00     55.79
       992   38.3490  2.345148   3011.00   2756.32     54.87
       993   38.3780  2.343442   3016.00   2757.66     54.92
       994   38.4070  2.341739   2945.00   2760.09     54.27
       995   38.4360  2.340039   2987.00   2763.77     54.65
       996   38.4650  2.338342   2967.00   2768.89     54.47
       997   38.4940  2.336647   3091.00   2775.72     55.60
       998   38.5230  2.334955   3237.00   2784.66     56.89
       999   38.5520  2.333265   3275.00   2796.24     57.23
      1000   38.5810  2.331577   3268.00   2811.35     57.17
      1001   38.6100  2.329893   3057.00   2833.92     55.29
      1002   38.6390  2.328211   3101.00   2860.33     55.69
      1003   38.6680  2.326532   3361.00   2900.32     57.97
      1004   38.6970  2.324855   3611.00   2960.72     60.09
      1005   38.7270  2.323123   3759.00   3058.79     61.31
      1006   38.7560  2.321451   3792.00   3207.74     61.58
      1007   38.7850  2.319782   3870.00   3433.54     62.21
      1008   38.8140  2.318116   3945.00   3759.58     62.81
      1009   38.8430  2.316452   4397.00   4187.65     66.31
      1010   38.8720  2.314790   4650.00   4693.82     68.19
      1011   38.9010  2.313131   5506.00   5221.52     74.20
      1012   38.9300  2.311475   6401.00   5678.91     80.01
      1013   38.9590  2.309821   6838.00   5952.37     82.69
      1014   38.9880  2.308170   7283.00   5980.21     85.34
      1015   39.0170  2.306521   7583.00   5812.02     87.08
      1016   39.0460  2.304874   7134.00   5597.71     84.46
      1017   39.0750  2.303231   6567.00   5431.12     81.04
      1018   39.1040  2.301589   5842.00   5285.46     76.43
      1019   39.1330  2.299950   5385.00   5082.02     73.38
      1020   39.1620  2.298314   5000.00   4817.25     70.71
      1021   39.1910  2.296680   4678.00   4596.42     68.40
      1022   39.2200  2.295049   4507.00   4544.17     67.13
      1023   39.2490  2.293420   4295.00   4748.01     65.54
      1024   39.2780  2.291793   4163.00   5245.05     64.52
      1025   39.3070  2.290169   4306.00   5994.68     65.62
      1026   39.3360  2.288548   4988.00   6850.78     70.63
      1027   39.3650  2.286928   5983.00   7536.20     77.35
      1028   39.3940  2.285311   7308.00   7726.22     85.49
      1029   39.4230  2.283697   8122.00   7299.12     90.12
      1030   39.4520  2.282085   7965.00   6492.45     89.25
      1031   39.4820  2.280421   6986.00   5631.57     83.58
      1032   39.5110  2.278813   6212.00   5016.06     78.82
      1033   39.5400  2.277209   5642.00   4732.04     75.11
      1034   39.5690  2.275607   5107.00   4823.43     71.46
      1035   39.5980  2.274007   5067.00   5283.93     71.18
      1036   39.6270  2.272410   5542.00   6052.20     74.44
      1037   39.6560  2.270815   6309.00   6983.45     79.43
      1038   39.6850  2.269222   7524.00   7816.60     86.74
      1039   39.7140  2.267632   8842.00   8221.73     94.03
      1040   39.7430  2.266044   9853.00   8024.29     99.26
      1041   39.7720  2.264458   9740.00   7382.81     98.69
      1042   39.8010  2.262875   8676.00   6593.88     93.15
      1043   39.8300  2.261295   7146.00   5862.51     84.53
      1044   39.8590  2.259716   5898.00   5262.79     76.80
      1045   39.8880  2.258140   4854.00   4765.51     69.67
      1046   39.9170  2.256566   4193.00   4337.82     64.75
      1047   39.9460  2.254995   3636.00   3992.72     60.30
      1048   39.9750  2.253426   3222.00   3759.87     56.76
      1049   40.0040  2.251859   3066.00   3655.41     55.37
      1050   40.0330  2.250294   3235.00   3678.39     56.88
      1051   40.0630  2.248679   3385.00   3808.01     58.18
      1052   40.0920  2.247119   3589.00   3997.24     59.91
      1053   40.1210  2.245562   3859.00   4170.20     62.12
      1054   40.1500  2.244006   4214.00   4244.55     64.92
      1055   40.1790  2.242454   4199.00   4198.65     64.80
      1056   40.2080  2.240903   4042.00   4106.29     63.58
      1057   40.2380  2.239302   3954.00   4075.34     62.88
      1058   40.2670  2.237756   3609.00   4181.11     60.08
      1059   40.2960  2.236212   3628.00   4443.09     60.23
      1060   40.3250  2.234671   3472.00   4833.38     58.92
      1061   40.3540  2.233132   3849.00   5280.90     62.04
      1062   40.3830  2.231595   4489.00   5710.94     67.00
      1063   40.4120  2.230061   5130.00   6068.86     71.62
      1064   40.4410  2.228528   5791.00   6258.04     76.10
      1065   40.4700  2.226998   6505.00   6138.33     80.65
      1066   40.4990  2.225470   7082.00   5669.07     84.15
      1067   40.5280  2.223945   6790.00   4998.36     82.40
      1068   40.5570  2.222422   6034.00   4332.26     77.68
      1069   40.5860  2.220901   4731.00   3783.13     68.78
      1070   40.6150  2.219382   3860.00   3390.56     62.13
      1071   40.6440  2.217865   3195.00   3148.60     56.52
      1072   40.6730  2.216351   2728.00   3028.21     52.23
      1073   40.7020  2.214838   2242.00   3002.49     47.35
      1074   40.7310  2.213328   2080.00   3037.51     45.61
      1075   40.7600  2.211820   2192.00   3100.06     46.82
      1076   40.7890  2.210315   2369.00   3149.98     48.67
      1077   40.8180  2.208811   2603.00   3146.03     51.02
      1078   40.8470  2.207310   2825.00   3072.43     53.15
      1079   40.8760  2.205811   3124.00   2953.92     55.89
      1080   40.9050  2.204314   3356.00   2827.99     57.93
      1081   40.9340  2.202819   3169.00   2718.90     56.29
      1082   40.9630  2.201327   3077.00   2627.12     55.47
      1083   40.9930  2.199785   2679.00   2568.94     51.76
      1084   41.0220  2.198297   2580.00   2534.26     50.79
      1085   41.0510  2.196811   2403.00   2515.24     49.02
      1086   41.0800  2.195327   2286.00   2507.69     47.81
      1087   41.1090  2.193845   2229.00   2509.26     47.21
      1088   41.1380  2.192365   2207.00   2519.07     46.98
      1089   41.1670  2.190888   2120.00   2537.27     46.04
      1090   41.1960  2.189413   2108.00   2565.09     45.91
      1091   41.2250  2.187940   2132.00   2605.87     46.17
      1092   41.2540  2.186468   2209.00   2667.25     47.00
      1093   41.2830  2.184999   2248.00   2751.61     47.41
      1094   41.3120  2.183532   2359.00   2884.37     48.57
      1095   41.3410  2.182068   2494.00   3048.31     49.94
      1096   41.3700  2.180605   2582.00   3216.34     50.81
      1097   41.3990  2.179145   2692.00   3333.21     51.88
      1098   41.4280  2.177686   3120.00   3341.63     55.86
      1099   41.4570  2.176230   3097.00   3229.61     55.65
      1100   41.4860  2.174776   3311.00   3052.38     57.54
      1101   41.5150  2.173323   3128.00   2868.87     55.93
      1102   41.5440  2.171874   3127.00   2717.51     55.92
      1103   41.5730  2.170425   2773.00   2613.68     52.66
      1104   41.6020  2.168979   2492.00   2558.62     49.92
      1105   41.6310  2.167535   2340.00   2545.54     48.37
      1106   41.6600  2.166094   2340.00   2563.41     48.37
      1107   41.6890  2.164654   2444.00   2599.36     49.44
      1108   41.7190  2.163166   2578.00   2630.32     50.77
      1109   41.7480  2.161731   2482.00   2638.70     49.82
      1110   41.7770  2.160297   2694.00   2611.65     51.90
      1111   41.8060  2.158866   2693.00   2557.53     51.89
      1112   41.8350  2.157436   2789.00   2495.04     52.81
      1113   41.8640  2.156009   2946.00   2438.01     54.28
      1114   41.8930  2.154583   3114.00   2392.87     55.80
      1115   41.9220  2.153160   3100.00   2360.64     55.68
      1116   41.9510  2.151738   2931.00   2337.39     54.14
      1117   41.9800  2.150319   2785.00   2324.81     52.77
      1118   42.0090  2.148902   2566.00   2318.67     50.66
      1119   42.0380  2.147486   2303.00   2312.49     47.99
      1120   42.0670  2.146073   2265.00   2319.01     47.59
      1121   42.0960  2.144661   2279.00   2334.13     47.74
      1122   42.1250  2.143252   2083.00   2359.90     45.64
      1123   42.1540  2.141845   1859.00   2400.32     43.12
      1124   42.1830  2.140439   1651.00   2445.76     40.63
      1125   42.2120  2.139036   1680.00   2492.12     40.99
      1126   42.2410  2.137634   1764.00   2522.88     42.00
      1127   42.2700  2.136235   1949.00   2523.84     44.15
      1128   42.2990  2.134837   1830.00   2492.37     42.78
      1129   42.3280  2.133442   2005.00   2441.86     44.78
      1130   42.3570  2.132048   2265.00   2389.93     47.59
      1131   42.3860  2.130656   2496.00   2343.76     49.96
      1132   42.4150  2.129267   2619.00   2307.38     51.18
      1133   42.4440  2.127879   2485.00   2282.73     49.85
      1134   42.4740  2.126446   2294.00   2266.07     47.90
      1135   42.5030  2.125062   2228.00   2255.77     47.20
      1136   42.5320  2.123680   2072.00   2250.81     45.52
      1137   42.5610  2.122300   2038.00   2246.08     45.14
      1138   42.5900  2.120922   2068.00   2242.56     45.48
      1139   42.6190  2.119546   2135.00   2239.84     46.21
      1140   42.6490  2.118124   2127.00   2237.73     46.12
      1141   42.6780  2.116752   2124.00   2236.17     46.09
      1142   42.7070  2.115382   2014.00   2235.14     44.88
      1143   42.7360  2.114013   1962.00   2237.24     44.29
      1144   42.7650  2.112647   2049.00   2237.57     45.27
      1145   42.7940  2.111283   2056.00   2238.81     45.34
      1146   42.8230  2.109920   2015.00   2241.26     44.89
      1147   42.8520  2.108559   2058.00   2245.91     45.37
      1148   42.8810  2.107200   1986.00   2254.46     44.56
      1149   42.9100  2.105843   1910.00   2267.84     43.70
      1150   42.9390  2.104488   1968.00   2288.87     44.36
      1151   42.9680  2.103135   1879.00   2319.68     43.35
      1152   42.9970  2.101783   1947.00   2361.23     44.12
      1153   43.0260  2.100434   2076.00   2410.30     45.56
      1154   43.0550  2.099087   2097.00   2465.81     45.79
      1155   43.0840  2.097741   2111.00   2518.18     45.95
      1156   43.1130  2.096397   2244.00   2562.29     47.37
      1157   43.1420  2.095055   2252.00   2604.88     47.46
      1158   43.1710  2.093714   2441.00   2662.67     49.41
      1159   43.2000  2.092376   2550.00   2747.23     50.50
      1160   43.2300  2.090994   2700.00   2857.50     51.96
      1161   43.2590  2.089659   2687.00   2959.44     51.84
      1162   43.2880  2.088326   2640.00   3014.79     51.38
      1163   43.3170  2.086995   2754.00   2988.54     52.48
      1164   43.3460  2.085666   2911.00   2890.45     53.95
      1165   43.3750  2.084339   2926.00   2761.37     54.09
      1166   43.4040  2.083014   2889.00   2639.58     53.75
      1167   43.4330  2.081690   2697.00   2544.71     51.93
      1168   43.4620  2.080368   2463.00   2479.30     49.63
      1169   43.4910  2.079048   2298.00   2441.98     47.94
      1170   43.5200  2.077730   2207.00   2430.49     46.98
      1171   43.5490  2.076413   2161.00   2447.30     46.49
      1172   43.5780  2.075099   2224.00   2500.97     47.16
      1173   43.6070  2.073786   2352.00   2606.29     48.50
      1174   43.6360  2.072475   2308.00   2781.90     48.04
      1175   43.6650  2.071166   2396.00   3043.54     48.95
      1176   43.6940  2.069858   2361.00   3393.47     48.59
      1177   43.7230  2.068553   2225.00   3806.38     47.17
      1178   43.7520  2.067249   2336.00   4216.25     48.33
      1179   43.7810  2.065947   2469.00   4516.75     49.69
      1180   43.8100  2.064646   2831.00   4610.45     53.21
      1181   43.8390  2.063348   3133.00   4488.83     55.97
      1182   43.8680  2.062051   3804.00   4237.10     61.68
      1183   43.8970  2.060756   4728.00   3962.75     68.76
      1184   43.9260  2.059463   5457.00   3742.57     73.87
      1185   43.9560  2.058127   6162.00   3594.45     78.50
      1186   43.9850  2.056837   6324.00   3503.77     79.52
      1187   44.0140  2.055549   5717.00   3429.45     75.61
      1188   44.0430  2.054263   4407.00   3366.75     66.39
      1189   44.0720  2.052978   3795.00   3339.89     61.60
      1190   44.1010  2.051695   3373.00   3365.98     58.08
      1191   44.1300  2.050415   3169.00   3434.42     56.29
      1192   44.1590  2.049135   3114.00   3506.75     55.80
      1193   44.1880  2.047858   3008.00   3537.73     54.85
      1194   44.2170  2.046582   3057.00   3519.08     55.29
      1195   44.2460  2.045308   3179.00   3493.20     56.38
      1196   44.2750  2.044035   3302.00   3509.16     57.46
      1197   44.3040  2.042765   3495.00   3578.38     59.12
      1198   44.3330  2.041496   3657.00   3669.79     60.47
      1199   44.3620  2.040228   3404.00   3715.34     58.34
      1200   44.3910  2.038963   3249.00   3652.83     57.00
      1201   44.4200  2.037699   3047.00   3483.82     55.20
      1202   44.4490  2.036437   3021.00   3267.14     54.96
      1203   44.4780  2.035176   2900.00   3058.09     53.85
      1204   44.5070  2.033917   2965.00   2881.59     54.45
      1205   44.5360  2.032660   2924.00   2735.76     54.07
      1206   44.5650  2.031405   2745.00   2607.29     52.39
      1207   44.5940  2.030151   2613.00   2495.56     51.12
      1208   44.6230  2.028899   2363.00   2403.43     48.61
      1209   44.6520  2.027649   2357.00   2332.53     48.55
      1210   44.6810  2.026400   2233.00   2282.31     47.25
      1211   44.7110  2.025110   2133.00   2250.65     46.18
      1212   44.7400  2.023865   2159.00   2238.55     46.47
      1213   44.7690  2.022621   2018.00   2244.36     44.92
      1214   44.7980  2.021379   2082.00   2270.73     45.63
      1215   44.8270  2.020139   2005.00   2320.31     44.78
      1216   44.8560  2.018900   1863.00   2395.57     43.16
      1217   44.8850  2.017663   1888.00   2495.35     43.45
      1218   44.9140  2.016428   1904.00   2611.52     43.63
      1219   44.9430  2.015193   1697.00   2726.20     41.19
      1220   44.9720  2.013962   1712.00   2814.62     41.38
      1221   45.0010  2.012731   1765.00   2866.87     42.01
      1222   45.0300  2.011502   1776.00   2888.90     42.14
      1223   45.0590  2.010275   1786.00   2888.80     42.26
      1224   45.0890  2.009007   1853.00   2857.47     43.05
      1225   45.1180  2.007783   2008.00   2779.36     44.81
      1226   45.1470  2.006561   2251.00   2658.56     47.44
      1227   45.1760  2.005340   2312.00   2521.05     48.08
      1228   45.2050  2.004121   2301.00   2392.23     47.97
      1229   45.2340  2.002903   2342.00   2285.79     48.39
      1230   45.2630  2.001688   2424.00   2205.89     49.23
      1231   45.2920  2.000473   2300.00   2149.72     47.96
      1232   45.3210  1.999261   2090.00   2112.44     45.72
      1233   45.3500  1.998049   1904.00   2088.30     43.63
      1234   45.3790  1.996840   1848.00   2075.00     42.99
      1235   45.4080  1.995632   1681.00   2064.32     41.00
      1236   45.4370  1.994426   1749.00   2056.77     41.82
      1237   45.4670  1.993180   1873.00   2047.62     43.28
      1238   45.4960  1.991977   1784.00   2044.90     42.24
      1239   45.5250  1.990775   1643.00   2041.04     40.53
      1240   45.5540  1.989575   1562.00   2039.21     39.52
      1241   45.5830  1.988377   1637.00   2038.46     40.46
      1242   45.6120  1.987180   1647.00   2038.91     40.58
      1243   45.6410  1.985985   1619.00   2040.87     40.24
      1244   45.6700  1.984791   1532.00   2044.99     39.14
      1245   45.6990  1.983599   1372.00   2051.20     37.04
      1246   45.7280  1.982409   1370.00   2064.25     37.01
      1247   45.7570  1.981220   1435.00   2086.04     37.88
      1248   45.7860  1.980032   1344.00   2120.75     36.66
      1249   45.8150  1.978846   1366.00   2172.64     36.96
      1250   45.8440  1.977662   1363.00   2245.95     36.92
      1251   45.8730  1.976479   1409.00   2334.25     37.54
      1252   45.9020  1.975298   1302.00   2434.97     36.08
      1253   45.9310  1.974118   1514.00   2530.25     38.91
      1254   45.9600  1.972940   1661.00   2598.85     40.76
      1255   45.9890  1.971763   1948.00   2629.35     44.14
      1256   46.0180  1.970588   2264.00   2637.73     47.58
      1257   46.0470  1.969414   2923.00   2660.47     54.06
      1258   46.0760  1.968242   3300.00   2729.39     57.45
      1259   46.1050  1.967072   3670.00   2867.45     60.58
      1260   46.1340  1.965903   3690.00   3069.16     60.75
      1261   46.1630  1.964735   3448.00   3306.68     58.72
      1262   46.1920  1.963569   3060.00   3527.90     55.32
      1263   46.2220  1.962365   2651.00   3667.74     51.49
      1264   46.2510  1.961202   2539.00   3657.63     50.39
      1265   46.2800  1.960040   2733.00   3494.42     52.28
      1266   46.3090  1.958880   2816.00   3227.08     53.07
      1267   46.3380  1.957722   3029.00   2930.15     55.04
      1268   46.3670  1.956565   3408.00   2659.47     58.38
      1269   46.3960  1.955410   3608.00   2442.05     60.07
      1270   46.4250  1.954256   3533.00   2283.89     59.44
      1271   46.4540  1.953103   3327.00   2176.62     57.68
      1272   46.4830  1.951952   2939.00   2108.15     54.21
      1273   46.5120  1.950803   2574.00   2065.80     50.73
      1274   46.5410  1.949654   2283.00   2039.67     47.78
      1275   46.5700  1.948508   2012.00   2024.16     44.86
      1276   46.5990  1.947363   1975.00   2013.58     44.44
      1277   46.6280  1.946219   1768.00   2006.93     42.05
      1278   46.6570  1.945077   1775.00   2003.34     42.13
      1279   46.6860  1.943936   1701.00   2001.69     41.24
      1280   46.7150  1.942797   1699.00   2005.01     41.22
      1281   46.7440  1.941659   1662.00   2011.30     40.77
      1282   46.7730  1.940523   1795.00   2023.01     42.37
      1283   46.8020  1.939388   1716.00   2042.75     41.42
      1284   46.8310  1.938255   1846.00   2073.53     42.97
      1285   46.8600  1.937123   1851.00   2123.30     43.02
      1286   46.8890  1.935992   1808.00   2198.82     42.52
      1287   46.9180  1.934863   1824.00   2309.19     42.71
      1288   46.9480  1.933697   1825.00   2468.89     42.72
      1289   46.9770  1.932571   2000.00   2671.23     44.72
      1290   47.0060  1.931446   2026.00   2917.47     45.01
      1291   47.0350  1.930323   2097.00   3196.51     45.79
      1292   47.0640  1.929201   2202.00   3479.37     46.93
      1293   47.0930  1.928081   2282.00   3715.82     47.77
      1294   47.1220  1.926961   2649.00   3845.51     51.47
      1295   47.1510  1.925844   3132.00   3843.72     55.96
      1296   47.1800  1.924728   3654.00   3733.91     60.45
      1297   47.2090  1.923613   4020.00   3547.03     63.40
      1298   47.2380  1.922500   3946.00   3303.09     62.82
      1299   47.2670  1.921388   4200.00   3031.49     64.81
      1300   47.2960  1.920277   4396.00   2773.49     66.30
      1301   47.3250  1.919168   4483.00   2561.83     66.96
      1302   47.3540  1.918060   4512.00   2412.60     67.17
      1303   47.3830  1.916954   4503.00   2330.86     67.10
      1304   47.4130  1.915811   4410.00   2315.64     66.41
      1305   47.4420  1.914708   3911.00   2361.78     62.54
      1306   47.4710  1.913606   3253.00   2458.84     57.04
      1307   47.5000  1.912505   2987.00   2588.26     54.65
      1308   47.5290  1.911406   2869.00   2719.64     53.56
      1309   47.5580  1.910308   2699.00   2809.73     51.95
      1310   47.5870  1.909211   2322.00   2816.74     48.19
      1311   47.6160  1.908116   2271.00   2730.85     47.65
      1312   47.6450  1.907022   2488.00   2583.42     49.88
      1313   47.6740  1.905930   2699.00   2417.88     51.95
      1314   47.7040  1.904801   2791.00   2259.68     52.83
      1315   47.7330  1.903712   3234.00   2136.82     56.87
      1316   47.7620  1.902624   3445.00   2046.32     58.69
      1317   47.7910  1.901537   3388.00   1984.70     58.21
      1318   47.8200  1.900451   3414.00   1945.92     58.43
      1319   47.8490  1.899367   3125.00   1922.06     55.90
      1320   47.8780  1.898284   2793.00   1908.57     52.85
      1321   47.9070  1.897203   2460.00   1902.37     49.60
      1322   47.9360  1.896123   2247.00   1902.88     47.40
      1323   47.9650  1.895044   2134.00   1909.87     46.20
      1324   47.9940  1.893967   1973.00   1927.07     44.42
      1325   48.0230  1.892891   1964.00   1954.23     44.32
      1326   48.0520  1.891816   1880.00   1997.21     43.36
      1327   48.0810  1.890742   1885.00   2054.86     43.42
      1328   48.1100  1.889670   1706.00   2125.35     41.30
      1329   48.1390  1.888600   1880.00   2203.05     43.36
      1330   48.1680  1.887531   1815.00   2278.53     42.60
      1331   48.1970  1.886463   1809.00   2343.77     42.53
      1332   48.2260  1.885396   1763.00   2400.02     41.99
      1333   48.2550  1.884331   1824.00   2455.04     42.71
      1334   48.2840  1.883266   1887.00   2510.46     43.44
      1335   48.3130  1.882204   1932.00   2555.81     43.95
      1336   48.3420  1.881142   2050.00   2576.69     45.28
      1337   48.3710  1.880082   2160.00   2569.73     46.48
      1338   48.4000  1.879023   2163.00   2551.33     46.51
      1339   48.4290  1.877966   2212.00   2537.54     47.03
      1340   48.4590  1.876873   2331.00   2529.15     48.28
      1341   48.4880  1.875819   2568.00   2511.08     50.68
      1342   48.5170  1.874765   2764.00   2464.16     52.57
      1343   48.5460  1.873713   2739.00   2386.10     52.34
      1344   48.5750  1.872662   2938.00   2295.81     54.20
      1345   48.6040  1.871613   3080.00   2217.95     55.50
      1346   48.6330  1.870564   3084.00   2170.90     55.53
      1347   48.6620  1.869517   3038.00   2164.40     55.12
      1348   48.6910  1.868472   3128.00   2199.29     55.93
      1349   48.7200  1.867427   2986.00   2266.93     54.64
      1350   48.7490  1.866384   2818.00   2348.33     53.08
      1351   48.7780  1.865342   2487.00   2414.01     49.87
      1352   48.8070  1.864302   2120.00   2434.23     46.04
      1353   48.8360  1.863263   1942.00   2389.10     44.07
      1354   48.8650  1.862224   2070.00   2294.83     45.50
      1355   48.8940  1.861188   2058.00   2175.35     45.37
      1356   48.9230  1.860152   2191.00   2061.04     46.81
      1357   48.9520  1.859118   2236.00   1963.93     47.29
      1358   48.9810  1.858085   2192.00   1888.30     46.82
      1359   49.0100  1.857054   2258.00   1832.99     47.52
      1360   49.0390  1.856023   2233.00   1796.14     47.25
      1361   49.0680  1.854994   2196.00   1771.83     46.86
      1362   49.0970  1.853966   2028.00   1755.71     45.03
      1363   49.1260  1.852940   1840.00   1744.60     42.90
      1364   49.1550  1.851914   1782.00   1736.52     42.21
      1365   49.1850  1.850855   1534.00   1730.14     39.17
      1366   49.2140  1.849832   1437.00   1725.31     37.91
      1367   49.2430  1.848810   1310.00   1721.55     36.19
      1368   49.2720  1.847790   1381.00   1719.05     37.16
      1369   49.3010  1.846771   1384.00   1717.65     37.20
      1370   49.3300  1.845753   1352.00   1718.06     36.77
      1371   49.3590  1.844737   1306.00   1721.27     36.14
      1372   49.3880  1.843721   1256.00   1727.33     35.44
      1373   49.4170  1.842707   1235.00   1741.47     35.14
      1374   49.4460  1.841694   1213.00   1764.55     34.83
      1375   49.4750  1.840683   1376.00   1798.49     37.09
      1376   49.5040  1.839672   1376.00   1843.64     37.09
      1377   49.5330  1.838663   1480.00   1897.51     38.47
      1378   49.5620  1.837655   1465.00   1953.44     38.28
      1379   49.5910  1.836648   1358.00   1999.84     36.85
      1380   49.6200  1.835643   1395.00   2022.61     37.35
      1381   49.6500  1.834604   1459.00   2013.84     38.20
      1382   49.6790  1.833601   1528.00   1979.55     39.09
      1383   49.7080  1.832599   1713.00   1934.60     41.39
      1384   49.7370  1.831599   1872.00   1892.17     43.27
      1385   49.7660  1.830599   2065.00   1859.33     45.44
      1386   49.7950  1.829601   2121.00   1837.29     46.05
      1387   49.8240  1.828604   2044.00   1822.72     45.21
      1388   49.8530  1.827608   1824.00   1810.34     42.71
      1389   49.8820  1.826613   1782.00   1798.58     42.21
      1390   49.9110  1.825620   1616.00   1786.56     40.20
      1391   49.9410  1.824593   1641.00   1780.27     40.51
      1392   49.9700  1.823603   1633.00   1785.07     40.41
      1393   49.9990  1.822613   1709.00   1803.64     41.34
      1394   50.0280  1.821624   1763.00   1838.48     41.99
      1395   50.0570  1.820637   1717.00   1887.45     41.44
      1396   50.0860  1.819651   1782.00   1945.30     42.21
      1397   50.1150  1.818666   1817.00   2002.78     42.63
      1398   50.1440  1.817682   1805.00   2045.39     42.49
      1399   50.1730  1.816699   1763.00   2059.59     41.99
      1400   50.2020  1.815718   1796.00   2037.29     42.38
      1401   50.2310  1.814737   1852.00   1986.69     43.03
      1402   50.2600  1.813758   1941.00   1924.54     44.06
      1403   50.2890  1.812780   1906.00   1865.52     43.66
      1404   50.3180  1.811803   1881.00   1818.08     43.37
      1405   50.3470  1.810828   1913.00   1789.45     43.74
      1406   50.3760  1.809853   1997.00   1782.16     44.69
      1407   50.4050  1.808880   1824.00   1800.36     42.71
      1408   50.4340  1.807908   1700.00   1849.04     41.23
      1409   50.4630  1.806937   1681.00   1936.85     41.00
      1410   50.4920  1.805967   1701.00   2073.14     41.24
      1411   50.5210  1.804998   1710.00   2264.98     41.35
      1412   50.5500  1.804031   1681.00   2511.82     41.00
      1413   50.5790  1.803065   1923.00   2799.58     43.85
      1414   50.6080  1.802099   1946.00   3094.33     44.11
      1415   50.6370  1.801135   2038.00   3341.07     45.14
      1416   50.6660  1.800172   2103.00   3483.35     45.86
      1417   50.6960  1.799177   2266.00   3488.98     47.60
      1418   50.7250  1.798217   2506.00   3375.13     50.06
      1419   50.7540  1.797257   2637.00   3190.92     51.35
      1420   50.7830  1.796299   2893.00   2981.07     53.79
      1421   50.8120  1.795342   3170.00   2769.94     56.30
      1422   50.8410  1.794386   3325.00   2566.68     57.66
      1423   50.8700  1.793431   3267.00   2376.54     57.16
      1424   50.8990  1.792477   3089.00   2204.85     55.58
      1425   50.9280  1.791524   2944.00   2057.12     54.26
      1426   50.9570  1.790573   2773.00   1937.84     52.66
      1427   50.9860  1.789623   2615.00   1848.36     51.14
      1428   51.0150  1.788673   2707.00   1786.57     52.03
      1429   51.0440  1.787725   2798.00   1747.79     52.90
      1430   51.0730  1.786778   2630.00   1725.90     51.28
      1431   51.1020  1.785832   2503.00   1712.34     50.03
      1432   51.1310  1.784887   2348.00   1699.52     48.46
      1433   51.1600  1.783944   2145.00   1682.31     46.31
      1434   51.1890  1.783001   2128.00   1659.19     46.13
      1435   51.2180  1.782060   1929.00   1633.49     43.92
      1436   51.2470  1.781119   1944.00   1608.64     44.09
      1437   51.2760  1.780180   1894.00   1586.93     43.52
      1438   51.3050  1.779242   1906.00   1569.47     43.66
      1439   51.3340  1.778305   1913.00   1556.48     43.74
      1440   51.3630  1.777369   1893.00   1547.69     43.51
      1441   51.3920  1.776434   1860.00   1542.71     43.13
      1442   51.4220  1.775468   1778.00   1541.51     42.17
      1443   51.4510  1.774536   1833.00   1544.88     42.81
      1444   51.4800  1.773604   1909.00   1553.94     43.69
      1445   51.5090  1.772674   1767.00   1572.97     42.04
      1446   51.5380  1.771744   1667.00   1605.86     40.83
      1447   51.5670  1.770816   1737.00   1657.69     41.68
      1448   51.5960  1.769889   1724.00   1732.77     41.52
      1449   51.6250  1.768963   1743.00   1832.70     41.75
      1450   51.6540  1.768038   1570.00   1952.52     39.62
      1451   51.6830  1.767114   1597.00   2081.00     39.96
      1452   51.7120  1.766191   1694.00   2193.62     41.16
      1453   51.7410  1.765269   1851.00   2260.71     43.02
      1454   51.7700  1.764349   1805.00   2256.99     42.49
      1455   51.8000  1.763397   1818.00   2183.01     42.64
      1456   51.8290  1.762479   1930.00   2064.94     43.93
      1457   51.8580  1.761561   2074.00   1934.20     45.54
      1458   51.8870  1.760645   2139.00   1813.49     46.25
      1459   51.9160  1.759729   2166.00   1714.91     46.54
      1460   51.9450  1.758815   2183.00   1642.23     46.72
      1461   51.9740  1.757902   2179.00   1593.49     46.68
      1462   52.0030  1.756990   2153.00   1563.62     46.40
      1463   52.0320  1.756079   2132.00   1545.65     46.17
      1464   52.0610  1.755169   1931.00   1534.23     43.94
      1465   52.0900  1.754260   1831.00   1528.64     42.79
      1466   52.1190  1.753352   1813.00   1528.98     42.58
      1467   52.1480  1.752445   1811.00   1537.20     42.56
      1468   52.1780  1.751508   1729.00   1554.90     41.58
      1469   52.2070  1.750603   1671.00   1579.40     40.88
      1470   52.2360  1.749700   1752.00   1608.22     41.86
      1471   52.2650  1.748797   1893.00   1635.20     43.51
      1472   52.2940  1.747895   2085.00   1652.28     45.66
      1473   52.3230  1.746995   1956.00   1653.63     44.23
      1474   52.3520  1.746095   1950.00   1640.84     44.16
      1475   52.3810  1.745197   1924.00   1622.17     43.86
      1476   52.4100  1.744300   1904.00   1606.50     43.63
      1477   52.4390  1.743403   1900.00   1599.21     43.59
      1478   52.4680  1.742508   1978.00   1601.10     44.47
      1479   52.4970  1.741613   2058.00   1608.47     45.37
      1480   52.5260  1.740720   2070.00   1613.85     45.50
      1481   52.5550  1.739828   1992.00   1607.21     44.63
      1482   52.5840  1.738937   1789.00   1587.08     42.30
      1483   52.6130  1.738046   1782.00   1557.98     42.21
      1484   52.6420  1.737157   1698.00   1522.67     41.21
      1485   52.6710  1.736269   1558.00   1488.05     39.47
      1486   52.7000  1.735382   1556.00   1457.87     39.45
      1487   52.7290  1.734496   1607.00   1436.13     40.09
      1488   52.7580  1.733611   1599.00   1423.60     39.99
      1489   52.7870  1.732726   1576.00   1421.99     39.70
      1490   52.8160  1.731843   1608.00   1431.99     40.10
      1491   52.8450  1.730961   1613.00   1454.60     40.16
      1492   52.8740  1.730080   1662.00   1490.44     40.77
      1493   52.9030  1.729200   1575.00   1539.90     39.69
      1494   52.9330  1.728291   1621.00   1600.50     40.26
      1495   52.9620  1.727412   1656.00   1662.49     40.69
      1496   52.9910  1.726536   1473.00   1717.56     38.38
      1497   53.0200  1.725659   1552.00   1754.96     39.40
      1498   53.0490  1.724784   1521.00   1767.72     39.00
      1499   53.0780  1.723911   1513.00   1753.99     38.90
      1500   53.1070  1.723037   1600.00   1714.62     40.00
      1501   53.1360  1.722165   1636.00   1655.90     40.45
      1502   53.1650  1.721294   1793.00   1589.04     42.34
      1503   53.1940  1.720424   1744.00   1524.82     41.76
      1504   53.2230  1.719555   1902.00   1470.29     43.61
      1505   53.2520  1.718687   2030.00   1428.76     45.06
      1506   53.2810  1.717820   2082.00   1401.30     45.63
      1507   53.3100  1.716954   2115.00   1388.05     45.99
      1508   53.3390  1.716089   1773.00   1389.30     42.11
      1509   53.3680  1.715225   1688.00   1406.17     41.09
      1510   53.3970  1.714361   1615.00   1441.20     40.19
      1511   53.4260  1.713499   1572.00   1495.32     39.65
      1512   53.4550  1.712638   1710.00   1569.71     41.35
      1513   53.4840  1.711778   1558.00   1661.67     39.47
      1514   53.5130  1.710918   1583.00   1763.34     39.79
      1515   53.5420  1.710060   1613.00   1860.37     40.16
      1516   53.5710  1.709203   1588.00   1932.93     39.85
      1517   53.6000  1.708346   1667.00   1961.05     40.83
      1518   53.6290  1.707491   1530.00   1934.69     39.12
      1519   53.6580  1.706637   1764.00   1861.49     42.00
      1520   53.6880  1.705754   1765.00   1757.74     42.01
      1521   53.7170  1.704901   1894.00   1656.11     43.52
      1522   53.7460  1.704050   2146.00   1568.26     46.32
      1523   53.7750  1.703199   2339.00   1503.27     48.36
      1524   53.8040  1.702350   2478.00   1464.44     49.78
      1525   53.8330  1.701501   2359.00   1450.93     48.57
      1526   53.8630  1.700624   2069.00   1459.07     45.49
      1527   53.8920  1.699777   1964.00   1483.56     44.32
      1528   53.9210  1.698932   1777.00   1517.26     42.15
      1529   53.9500  1.698087   1621.00   1553.31     40.26
      1530   53.9790  1.697243   1521.00   1586.36     39.00
      1531   54.0080  1.696400   1467.00   1616.46     38.30
      1532   54.0370  1.695558   1406.00   1647.23     37.50
      1533   54.0660  1.694717   1413.00   1676.10     37.59
      1534   54.0950  1.693877   1363.00   1697.38     36.92
      1535   54.1240  1.693038   1473.00   1700.06     38.38
      1536   54.1530  1.692200   1584.00   1674.89     39.80
      1537   54.1820  1.691363   1584.00   1623.24     39.80
      1538   54.2110  1.690526   1669.00   1555.99     40.85
      1539   54.2400  1.689691   1732.00   1486.00     41.62
      1540   54.2690  1.688856   1761.00   1424.41     41.96
      1541   54.2980  1.688023   1920.00   1378.41     43.82
      1542   54.3270  1.687190   2206.00   1350.46     46.97
      1543   54.3560  1.686359   2298.00   1344.05     47.94
      1544   54.3850  1.685528   2185.00   1360.82     46.74
      1545   54.4150  1.684669   2059.00   1403.62     45.38
      1546   54.4440  1.683841   1968.00   1469.00     44.36
      1547   54.4730  1.683013   1922.00   1554.56     43.84
      1548   54.5020  1.682186   1739.00   1652.19     41.70
      1549   54.5310  1.681360   1574.00   1749.05     39.67
      1550   54.5600  1.680534   1595.00   1824.60     39.94
      1551   54.5890  1.679710   1464.00   1858.35     38.26
      1552   54.6180  1.678887   1508.00   1843.01     38.83
      1553   54.6470  1.678064   1572.00   1789.07     39.65
      1554   54.6760  1.677243   1702.00   1722.36     41.26
      1555   54.7050  1.676422   1824.00   1665.96     42.71
      1556   54.7340  1.675603   1817.00   1634.45     42.63
      1557   54.7630  1.674784   1885.00   1632.82     43.42
      1558   54.7920  1.673966   1774.00   1656.67     42.12
      1559   54.8210  1.673149   1879.00   1692.77     43.35
      1560   54.8500  1.672333   1916.00   1720.56     43.77
      1561   54.8790  1.671518   1924.00   1718.86     43.86
      1562   54.9080  1.670704   1976.00   1677.50     44.45
      1563   54.9370  1.669890   1924.00   1603.62     43.86
      1564   54.9660  1.669078   1874.00   1513.53     43.29
      1565   54.9950  1.668266   1857.00   1423.51     43.09
      1566   55.0240  1.667456   1979.00   1343.43     44.49
      1567   55.0530  1.666646   2112.00   1278.19     45.96
      1568   55.0820  1.665837   2167.00   1230.68     46.55
      1569   55.1110  1.665029   2178.00   1198.85     46.67
      1570   55.1400  1.664222   2139.00   1181.49     46.25
      1571   55.1700  1.663388   1899.00   1177.16     43.58
      1572   55.1990  1.662583   1715.00   1185.30     41.41
      1573   55.2280  1.661778   1690.00   1205.23     41.11
      1574   55.2570  1.660975   1610.00   1236.45     40.12
      1575   55.2860  1.660172   1517.00   1277.32     38.95
      1576   55.3150  1.659370   1540.00   1324.10     39.24
      1577   55.3440  1.658569   1541.00   1371.91     39.26
      1578   55.3730  1.657769   1470.00   1407.36     38.34
      1579   55.4020  1.656970   1512.00   1421.23     38.88
      1580   55.4310  1.656172   1503.00   1407.76     38.77
      1581   55.4600  1.655375   1524.00   1371.00     39.04
      1582   55.4890  1.654578   1550.00   1321.52     39.37
      1583   55.5180  1.653782   1608.00   1269.89     40.10
      1584   55.5470  1.652988   1637.00   1223.09     40.46
      1585   55.5760  1.652194   1581.00   1185.80     39.76
      1586   55.6050  1.651401   1517.00   1158.39     38.95
      1587   55.6340  1.650609   1710.00   1142.26     41.35
      1588   55.6630  1.649817   1792.00   1135.81     42.33
      1589   55.6920  1.649027   1760.00   1138.65     41.95
      1590   55.7210  1.648237   1638.00   1151.65     40.47
      1591   55.7500  1.647449   1479.00   1176.51     38.46
      1592   55.7790  1.646661   1447.00   1216.19     38.04
      1593   55.8080  1.645874   1382.00   1273.59     37.18
      1594   55.8380  1.645061   1415.00   1351.96     37.62
      1595   55.8670  1.644275   1235.00   1448.67     35.14
      1596   55.8960  1.643491   1255.00   1561.06     35.43
      1597   55.9260  1.642681   1233.00   1685.47     35.11
      1598   55.9550  1.641898   1309.00   1802.55     36.18
      1599   55.9840  1.641116   1303.00   1904.99     36.10
      1600   56.0130  1.640335   1415.00   1978.42     37.62
      1601   56.0420  1.639555   1545.00   2008.68     39.31
      1602   56.0710  1.638776   1619.00   1989.50     40.24
      1603   56.1000  1.637998   1691.00   1930.48     41.12
      1604   56.1290  1.637220   1981.00   1852.45     44.51
      1605   56.1580  1.636443   2089.00   1775.63     45.71
      1606   56.1870  1.635667   2244.00   1716.64     47.37
      1607   56.2160  1.634892   2336.00   1682.44     48.33
      1608   56.2450  1.634118   2295.00   1673.65     47.91
      1609   56.2740  1.633345   2446.00   1680.94     49.46
      1610   56.3030  1.632572   2276.00   1687.47     47.71
      1611   56.3320  1.631800   2130.00   1676.02     46.15
      1612   56.3610  1.631030   2120.00   1639.97     46.04
      1613   56.3900  1.630260   2044.00   1587.57     45.21
      1614   56.4190  1.629490   1824.00   1534.90     42.71
      1615   56.4480  1.628722   1757.00   1497.16     41.92
      1616   56.4770  1.627954   1830.00   1484.61     42.78
      1617   56.5060  1.627188   1910.00   1501.84     43.70
      1618   56.5350  1.626422   1890.00   1543.32     43.47
      1619   56.5640  1.625657   2021.00   1599.56     44.96
      1620   56.5930  1.624893   2054.00   1654.54     45.32
      1621   56.6220  1.624129   2002.00   1692.85     44.74
      1622   56.6520  1.623340   2011.00   1695.39     44.84
      1623   56.6810  1.622579   1838.00   1652.72     42.87
      1624   56.7100  1.621818   1859.00   1572.57     43.12
      1625   56.7390  1.621058   1889.00   1472.82     43.46
      1626   56.7680  1.620298   1961.00   1372.14     44.28
      1627   56.7970  1.619540   1995.00   1281.18     44.67
      1628   56.8260  1.618782   1974.00   1207.31     44.43
      1629   56.8550  1.618025   1937.00   1151.35     44.01
      1630   56.8840  1.617269   1723.00   1112.74     41.51
      1631   56.9130  1.616514   1758.00   1089.14     41.93
      1632   56.9420  1.615759   1753.00   1081.23     41.87
      1633   56.9710  1.615006   1746.00   1087.49     41.79
      1634   57.0000  1.614253   1771.00   1107.13     42.08
      1635   57.0290  1.613501   1795.00   1138.49     42.37
      1636   57.0580  1.612750   1705.00   1178.94     41.29
      1637   57.0870  1.612000   1714.00   1224.44     41.40
      1638   57.1160  1.611250   1685.00   1269.24     41.05
      1639   57.1450  1.610501   1611.00   1308.70     40.14
      1640   57.1740  1.609753   1669.00   1343.33     40.85
      1641   57.2030  1.609006   1683.00   1381.88     41.02
      1642   57.2320  1.608260   1781.00   1436.70     42.20
      1643   57.2610  1.607514   1716.00   1518.09     41.42
      1644   57.2900  1.606769   1858.00   1629.03     43.10
      1645   57.3190  1.606025   2024.00   1762.56     44.99
      1646   57.3480  1.605282   2002.00   1900.33     44.74
      1647   57.3770  1.604539   2057.00   2012.82     45.35
      1648   57.4070  1.603772   2084.00   2066.13     45.65
      1649   57.4360  1.603031   2185.00   2033.69     46.74
      1650   57.4650  1.602291   2249.00   1925.95     47.42
      1651   57.4940  1.601552   2187.00   1770.29     46.77
      1652   57.5230  1.600814   2416.00   1599.74     49.15
      1653   57.5520  1.600076   2526.00   1439.71     50.26
      1654   57.5810  1.599339   2728.00   1306.17     52.23
      1655   57.6100  1.598603   2759.00   1207.30     52.53
      1656   57.6390  1.597867   2927.00   1145.94     54.10
      1657   57.6680  1.597133   2912.00   1120.72     53.96
      1658   57.6970  1.596399   2723.00   1129.47     52.18
      1659   57.7260  1.595666   2432.00   1169.01     49.32
      1660   57.7560  1.594909   2110.00   1235.25     45.93
      1661   57.7850  1.594177   1924.00   1322.12     43.86
      1662   57.8140  1.593446   1747.00   1421.05     41.80
      1663   57.8430  1.592717   1612.00   1520.72     40.15
      1664   57.8720  1.591987   1585.00   1606.50     39.81
      1665   57.9010  1.591259   1643.00   1659.91     40.53
      1666   57.9300  1.590531   1642.00   1664.44     40.52
      1667   57.9590  1.589805   1718.00   1617.19     41.45
      1668   57.9880  1.589079   1861.00   1533.20     43.14
      1669   58.0170  1.588353   1990.00   1436.53     44.61
      1670   58.0460  1.587629   2115.00   1348.63     45.99
      1671   58.0750  1.586905   2097.00   1283.56     45.79
      1672   58.1040  1.586182   2136.00   1247.63     46.22
      1673   58.1330  1.585460   2162.00   1243.12     46.50
      1674   58.1630  1.584713   2151.00   1264.16     46.38
      1675   58.1920  1.583993   2175.00   1297.97     46.64
      1676   58.2210  1.583273   2226.00   1330.56     47.18
      1677   58.2500  1.582553   2117.00   1348.83     46.01
      1678   58.2790  1.581835   2016.00   1343.34     44.90
      1679   58.3080  1.581117   1902.00   1312.63     43.61
      1680   58.3370  1.580400   1791.00   1264.63     42.32
      1681   58.3660  1.579684   1750.00   1213.28     41.83
      1682   58.3950  1.578969   1738.00   1171.65     41.69
      1683   58.4240  1.578254   1645.00   1151.67     40.56
      1684   58.4530  1.577540   1519.00   1158.11     38.97
      1685   58.4820  1.576827   1601.00   1191.91     40.01
      1686   58.5110  1.576114   1655.00   1248.28     40.68
      1687   58.5400  1.575403   1680.00   1317.68     40.99
      1688   58.5690  1.574692   1654.00   1386.00     40.67
      1689   58.5980  1.573982   1696.00   1436.21     41.18
      1690   58.6270  1.573272   1731.00   1454.94     41.61
      1691   58.6560  1.572563   1691.00   1441.17     41.12
      1692   58.6850  1.571855   1702.00   1408.87     41.26
      1693   58.7140  1.571148   1680.00   1376.98     40.99
      1694   58.7430  1.570442   1811.00   1360.19     42.56
      1695   58.7720  1.569736   1786.00   1368.47     42.26
      1696   58.8010  1.569031   1779.00   1400.43     42.18
      1697   58.8300  1.568326   1897.00   1447.06     43.55
      1698   58.8590  1.567623   1880.00   1492.09     43.36
      1699   58.8880  1.566920   1804.00   1516.03     42.47
      1700   58.9180  1.566194   1576.00   1504.65     39.70
      1701   58.9470  1.565492   1425.00   1456.76     37.75
      1702   58.9760  1.564792   1331.00   1380.94     36.48
      1703   59.0050  1.564092   1325.00   1291.29     36.40
      1704   59.0340  1.563393   1522.00   1202.54     39.01
      1705   59.0630  1.562694   1500.00   1126.06     38.73
      1706   59.0920  1.561996   1594.00   1068.03     39.92
      1707   59.1210  1.561299   1675.00   1030.09     40.93
      1708   59.1500  1.560603   1679.00   1010.64     40.98
      1709   59.1790  1.559907   1529.00   1006.12     39.10
      1710   59.2080  1.559213   1516.00   1011.95     38.94
      1711   59.2370  1.558519   1540.00   1022.52     39.24
      1712   59.2660  1.557825   1551.00   1034.83     39.38
      1713   59.2950  1.557132   1510.00   1044.77     38.86
      1714   59.3240  1.556440   1430.00   1047.59     37.82
      1715   59.3530  1.555749   1389.00   1038.66     37.27
      1716   59.3820  1.555058   1374.00   1017.31     37.07
      1717   59.4110  1.554369   1235.00    988.00     35.14
      1718   59.4400  1.553680   1083.00    957.85     32.91
      1719   59.4690  1.552991   1051.00    933.36     32.42
      1720   59.4980  1.552303   1062.00    916.86     32.59
      1721   59.5270  1.551616    998.00    907.44     31.59
      1722   59.5560  1.550930    984.00    906.26     31.37
      1723   59.5850  1.550244    915.00    907.49     30.25
      1724   59.6150  1.549536    944.00    906.98     30.72
      1725   59.6450  1.548828    893.00    902.99     29.88
      1726   59.6740  1.548145    941.00    897.21     30.68
      1727   59.7030  1.547462    998.00    891.57     31.59
      1728   59.7320  1.546780    927.00    886.52     30.45
      1729   59.7610  1.546099    928.00    880.22     30.46
      1730   59.7900  1.545418    895.00    869.09     29.92
      1731   59.8190  1.544738    887.00    850.18     29.78
      1732   59.8480  1.544059    838.00    823.47     28.95
      1733   59.8770  1.543380    766.00    791.97     27.68
      1734   59.9060  1.542702    765.00    759.48     27.66
      1735   59.9350  1.542025    835.00    728.86     28.90
      1736   59.9640  1.541349    800.00    702.22     28.28
      1737   59.9930  1.540673    845.00    680.25     29.07
      1738   60.0220  1.539998    789.00    662.97     28.09
      1739   60.0510  1.539324    853.00    648.77     29.21
      1740   60.0800  1.538650    868.00    639.18     29.46
      1741   60.1090  1.537977    768.00    632.19     27.71
      1742   60.1380  1.537305    757.00    627.07     27.51
      1743   60.1670  1.536633    639.00    623.27     25.28
      1744   60.1960  1.535962    626.00    620.42     25.02
      1745   60.2250  1.535292    704.00    618.32     26.53
      1746   60.2540  1.534622    650.00    616.92     25.50
      1747   60.2830  1.533953    650.00    616.36     25.50
      1748   60.3120  1.533285    590.00    616.90     24.29
      1749   60.3410  1.532617    570.00    619.08     23.87
      1750   60.3700  1.531950    536.00    623.68     23.15
      1751   60.4000  1.531261    557.00    632.07     23.60
      1752   60.4290  1.530596    571.00    644.58     23.90
      1753   60.4580  1.529931    583.00    663.42     24.15
      1754   60.4870  1.529267    531.00    689.07     23.04
      1755   60.5160  1.528604    550.00    721.62     23.45
      1756   60.5450  1.527941    539.00    759.96     23.22
      1757   60.5740  1.527279    582.00    801.29     24.12
      1758   60.6030  1.526617    603.00    840.86     24.56
      1759   60.6320  1.525956    613.00    872.11     24.76
      1760   60.6610  1.525296    646.00    888.52     25.42
      1761   60.6900  1.524637    625.00    886.29     25.00
      1762   60.7190  1.523978    629.00    866.81     25.08
      1763   60.7480  1.523320    638.00    835.38     25.26
      1764   60.7770  1.522663    657.00    797.80     25.63
      1765   60.8060  1.522006    671.00    762.04     25.90
      1766   60.8350  1.521350    632.00    731.40     25.14
      1767   60.8640  1.520694    687.00    708.82     26.21
      1768   60.8930  1.520039    683.00    695.63     26.13
      1769   60.9220  1.519385    725.00    691.41     26.93
      1770   60.9510  1.518732    708.00    694.52     26.61
      1771   60.9800  1.518079    717.00    702.14     26.78
      1772   61.0090  1.517427    674.00    710.49     25.96
      1773   61.0380  1.516775    711.00    714.73     26.66
      1774   61.0670  1.516125    670.00    713.28     25.88
      1775   61.0960  1.515474    708.00    704.89     26.61
      1776   61.1250  1.514825    699.00    691.35     26.44
      1777   61.1550  1.514154    711.00    676.40     26.66
      1778   61.1840  1.513505    695.00    664.15     26.36
      1779   61.2130  1.512858    626.00    656.88     25.02
      1780   61.2420  1.512211    596.00    657.17     24.41
      1781   61.2710  1.511565    617.00    665.18     24.84
      1782   61.3000  1.510919    597.00    681.82     24.43
      1783   61.3290  1.510274    563.00    706.90     23.73
      1784   61.3580  1.509630    577.00    738.96     24.02
      1785   61.3870  1.508986    576.00    775.65     24.00
      1786   61.4160  1.508343    618.00    814.62     24.86
      1787   61.4460  1.507679    612.00    853.51     24.74
      1788   61.4750  1.507037    605.00    890.79     24.60
      1789   61.5040  1.506396    599.00    925.10     24.47
      1790   61.5330  1.505756    620.00    954.50     24.90
      1791   61.5620  1.505116    631.00    978.61     25.12
      1792   61.5910  1.504477    699.00    996.46     26.44
      1793   61.6200  1.503838    665.00   1006.60     25.79
      1794   61.6490  1.503200    685.00   1005.33     26.17
      1795   61.6780  1.502563    662.00    987.86     25.73
      1796   61.7070  1.501927    696.00    952.29     26.38
      1797   61.7360  1.501291    714.00    902.27     26.72
      1798   61.7650  1.500655    708.00    845.11     26.61
      1799   61.7940  1.500021    763.00    787.94     27.62
      1800   61.8230  1.499386    821.00    736.10     28.65
      1801   61.8520  1.498753    741.00    692.22     27.22
      1802   61.8820  1.498098    764.00    655.98     27.64
      1803   61.9110  1.497466    780.00    629.08     27.93
      1804   61.9400  1.496835    817.00    608.74     28.58
      1805   61.9690  1.496204    825.00    593.28     28.72
      1806   61.9980  1.495574    738.00    580.92     27.17
      1807   62.0270  1.494944    681.00    571.11     26.10
      1808   62.0560  1.494315    639.00    563.06     25.28
      1809   62.0850  1.493687    565.00    556.59     23.77
      1810   62.1140  1.493059    576.00    551.58     24.00
      1811   62.1430  1.492432    701.00    547.91     26.48
      1812   62.1720  1.491805    800.00    545.81     28.28
      1813   62.2010  1.491179    852.00    544.14     29.19
      1814   62.2300  1.490554    877.00    543.05     29.61
      1815   62.2590  1.489930    823.00    542.47     28.69
      1816   62.2880  1.489305    767.00    542.64     27.69
      1817   62.3170  1.488682    765.00    544.25     27.66
      1818   62.3460  1.488059    786.00    548.11     28.04
      1819   62.3750  1.487437    881.00    555.34     29.68
      1820   62.4040  1.486816    822.00    567.05     28.67
      1821   62.4330  1.486195    817.00    584.25     28.58
      1822   62.4620  1.485574    798.00    607.49     28.25
      1823   62.4910  1.484954    746.00    636.65     27.31
      1824   62.5200  1.484336    802.00    670.57     28.32
      1825   62.5490  1.483717    720.00    706.72     26.83
      1826   62.5780  1.483099    698.00    741.11     26.42
      1827   62.6070  1.482482    628.00    768.47     25.06
      1828   62.6370  1.481844    575.00    784.20     23.98
      1829   62.6660  1.481228    498.00    784.79     22.32
      1830   62.6950  1.480612    554.00    771.97     23.54
      1831   62.7240  1.479998    616.00    749.36     24.82
      1832   62.7530  1.479383    582.00    721.92     24.12
      1833   62.7820  1.478770    633.00    694.63     25.16
      1834   62.8110  1.478157    572.00    671.34     23.92
      1835   62.8400  1.477544    545.00    654.24     23.35
      1836   62.8690  1.476933    591.00    643.64     24.31
      1837   62.8980  1.476321    657.00    639.77     25.63
      1838   62.9270  1.475711    651.00    639.98     25.51
      1839   62.9560  1.475101    736.00    643.46     27.13
      1840   62.9850  1.474491    700.00    648.88     26.46
      1841   63.0140  1.473883    721.00    655.13     26.85
      1842   63.0430  1.473274    713.00    660.66     26.70
      1843   63.0720  1.472667    698.00    663.55     26.42
      1844   63.1010  1.472060    685.00    662.24     26.17
      1845   63.1300  1.471453    584.00    656.51     24.17
      1846   63.1590  1.470847    539.00    647.16     23.22
      1847   63.1880  1.470242    498.00    636.08     22.32
      1848   63.2180  1.469617    559.00    625.76     23.64
      1849   63.2470  1.469013    516.00    619.14     22.72
      1850   63.2760  1.468409    437.00    619.71     20.90
      1851   63.3050  1.467806    480.00    628.59     21.91
      1852   63.3340  1.467204    493.00    648.46     22.20
      1853   63.3630  1.466602    491.00    679.77     22.16
      1854   63.3930  1.465980    491.00    723.46     22.16
      1855   63.4220  1.465380    535.00    773.98     23.13
      1856   63.4510  1.464780    554.00    827.91     23.54
      1857   63.4800  1.464181    546.00    878.18     23.37
      1858   63.5090  1.463582    522.00    915.93     22.85
      1859   63.5380  1.462984    563.00    932.96     23.73
      1860   63.5670  1.462386    582.00    925.75     24.12
      1861   63.5960  1.461789    596.00    896.97     24.41
      1862   63.6250  1.461193    637.00    853.10     25.24
      1863   63.6540  1.460597    680.00    801.05     26.08
      1864   63.6830  1.460002    636.00    747.37     25.22
      1865   63.7120  1.459407    556.00    696.93     23.58
      1866   63.7410  1.458813    530.00    653.21     23.02
      1867   63.7700  1.458220    567.00    617.82     23.81
      1868   63.7990  1.457627    657.00    591.35     25.63
      1869   63.8280  1.457034    566.00    573.55     23.79
      1870   63.8570  1.456443    572.00    563.40     23.92
      1871   63.8860  1.455851    566.00    559.92     23.79
      1872   63.9150  1.455261    541.00    562.15     23.26
      1873   63.9440  1.454671    549.00    568.60     23.43
      1874   63.9730  1.454081    594.00    579.10     24.37
      1875   64.0020  1.453492    568.00    591.86     23.83
      1876   64.0310  1.452904    548.00    605.13     23.41
      1877   64.0600  1.452316    491.00    616.71     22.16
      1878   64.0890  1.451729    480.00    624.30     21.91
      1879   64.1190  1.451122    454.00    626.36     21.31
      1880   64.1480  1.450536    456.00    623.04     21.35
      1881   64.1770  1.449950    506.00    617.23     22.49
      1882   64.2060  1.449365    534.00    611.07     23.11
      1883   64.2350  1.448781    597.00    608.53     24.43
      1884   64.2640  1.448197    585.00    611.25     24.19
      1885   64.2930  1.447614    584.00    621.63     24.17
      1886   64.3220  1.447031    512.00    640.66     22.63
      1887   64.3510  1.446449    469.00    668.29     21.66
      1888   64.3800  1.445868    431.00    703.12     20.76
      1889   64.4090  1.445287    493.00    742.27     22.20
      1890   64.4380  1.444706    523.00    781.23     22.87
      1891   64.4670  1.444126    586.00    813.89     24.21
      1892   64.4960  1.443547    559.00    833.79     23.64
      1893   64.5250  1.442968    602.00    836.64     24.54
      1894   64.5540  1.442390    594.00    822.84     24.37
      1895   64.5830  1.441812    619.00    796.37     24.88
      1896   64.6120  1.441235    609.00    762.65     24.68
      1897   64.6410  1.440659    652.00    726.24     25.53
      1898   64.6700  1.440083    670.00    690.62     25.88
      1899   64.6990  1.439507    747.00    658.35     27.33
      1900   64.7280  1.438933    709.00    630.99     26.63
      1901   64.7570  1.438358    707.00    609.13     26.59
      1902   64.7860  1.437784    688.00    592.62     26.23
      1903   64.8150  1.437211    679.00    580.96     26.06
      1904   64.8440  1.436638    708.00    573.61     26.61
      1905   64.8740  1.436046    641.00    570.03     25.32
      1906   64.9030  1.435475    623.00    570.10     24.96
      1907   64.9330  1.434884    604.00    573.28     24.58
      1908   64.9620  1.434314    570.00    580.25     23.87
      1909   64.9910  1.433744    522.00    590.96     22.85
      1910   65.0200  1.433174    556.00    606.31     23.58
      1911   65.0490  1.432606    573.00    626.86     23.94
      1912   65.0780  1.432037    569.00    653.44     23.85
      1913   65.1070  1.431470    595.00    685.56     24.39
      1914   65.1360  1.430902    474.00    722.53     21.77
      1915   65.1650  1.430336    471.00    762.15     21.70
      1916   65.1940  1.429770    428.00    800.80     20.69
      1917   65.2230  1.429204    441.00    833.62     21.00
      1918   65.2520  1.428639    435.00    855.79     20.86
      1919   65.2810  1.428074    441.00    864.46     21.00
      1920   65.3100  1.427511    457.00    860.99     21.38
      1921   65.3390  1.426947    451.00    850.43     21.24
      1922   65.3680  1.426384    486.00    839.27     22.05
      1923   65.3970  1.425822    492.00    833.09     22.18
      1924   65.4260  1.425260    466.00    836.06     21.59
      1925   65.4550  1.424699    455.00    849.70     21.33
      1926   65.4840  1.424138    508.00    873.41     22.54
      1927   65.5130  1.423578    598.00    904.75     24.45
      1928   65.5420  1.423018    612.00    939.39     24.74
      1929   65.5710  1.422459    579.00    971.13     24.06
      1930   65.6000  1.421900    554.00    992.13     23.54
      1931   65.6300  1.421323    600.00    994.65     24.49
      1932   65.6590  1.420765    591.00    975.09     24.31
      1933   65.6880  1.420208    633.00    936.82     25.16
      1934   65.7170  1.419652    632.00    886.96     25.14
      1935   65.7460  1.419096    653.00    833.16     25.55
      1936   65.7750  1.418540    636.00    781.13     25.22
      1937   65.8040  1.417985    652.00    734.93     25.53
      1938   65.8330  1.417431    609.00    696.92     24.68
      1939   65.8620  1.416877    650.00    666.28     25.50
      1940   65.8910  1.416324    653.00    643.84     25.55
      1941   65.9200  1.415771    670.00    627.91     25.88
      1942   65.9490  1.415219    679.00    616.96     26.06
      1943   65.9780  1.414667    642.00    609.91     25.34
      1944   66.0070  1.414116    673.00    605.79     25.94
      1945   66.0360  1.413565    685.00    603.80     26.17
      1946   66.0650  1.413015    653.00    603.39     25.55
      1947   66.0940  1.412465    677.00    604.20     26.02
      1948   66.1230  1.411916    737.00    606.09     27.15
      1949   66.1520  1.411367    816.00    609.11     28.57
      1950   66.1810  1.410819    794.00    613.63     28.18
      1951   66.2100  1.410271    792.00    620.31     28.14
      1952   66.2390  1.409724    721.00    630.14     26.85
      1953   66.2680  1.409178    678.00    644.43     26.04
      1954   66.2970  1.408632    688.00    664.79     26.23
      1955   66.3260  1.408086    660.00    693.01     25.69
      1956   66.3550  1.407541    648.00    730.80     25.46
      1957   66.3850  1.406978    654.00    781.26     25.57
      1958   66.4140  1.406433    585.00    841.30     24.19
      1959   66.4430  1.405890    579.00    911.10     24.06
      1960   66.4720  1.405347    537.00    987.87     23.17
      1961   66.5010  1.404804    581.00   1065.85     24.10
      1962   66.5300  1.404262    591.00   1136.91     24.31
      1963   66.5590  1.403721    649.00   1191.30     25.48
      1964   66.5880  1.403180    613.00   1220.25     24.76
      1965   66.6180  1.402621    641.00   1218.96     25.32
      1966   66.6470  1.402081    645.00   1188.25     25.40
      1967   66.6760  1.401541    655.00   1134.31     25.59
      1968   66.7050  1.401003    749.00   1066.61     27.37
      1969   66.7340  1.400464    879.00    995.01     29.65
      1970   66.7630  1.399926    906.00    927.37     30.10
      1971   66.7920  1.399389    972.00    868.81     31.18
      1972   66.8210  1.398852    976.00    821.94     31.24
      1973   66.8500  1.398315    941.00    787.15     30.68
      1974   66.8790  1.397780    991.00    762.84     31.48
      1975   66.9080  1.397244    998.00    747.47     31.59
      1976   66.9370  1.396709   1064.00    737.71     32.62
      1977   66.9660  1.396175   1071.00    730.53     32.73
      1978   66.9950  1.395641   1037.00    723.56     32.20
      1979   67.0240  1.395107    965.00    715.81     31.06
      1980   67.0530  1.394574    972.00    707.32     31.18
      1981   67.0820  1.394042   1057.00    698.85     32.51
      1982   67.1120  1.393492   1053.00    691.04     32.45
      1983   67.1410  1.392960   1074.00    685.27     32.77
      1984   67.1700  1.392429    948.00    681.98     30.79
      1985   67.1990  1.391899    852.00    681.78     29.19
      1986   67.2280  1.391369    852.00    685.33     29.19
      1987   67.2570  1.390839    799.00    692.77     28.27
      1988   67.2860  1.390311    772.00    704.40     27.78
      1989   67.3150  1.389782    814.00    720.25     28.53
      1990   67.3440  1.389254    832.00    739.91     28.84
      1991   67.3730  1.388727    848.00    762.80     29.12
      1992   67.4020  1.388200    768.00    786.92     27.71
      1993   67.4310  1.387673    810.00    809.99     28.46
      1994   67.4600  1.387147    808.00    829.22     28.43
      1995   67.4890  1.386622    779.00    841.53     27.91
      1996   67.5180  1.386097    715.00    844.87     26.74
      1997   67.5470  1.385572    678.00    839.38     26.04
      1998   67.5760  1.385048    644.00    827.32     25.38
      1999   67.6050  1.384524    629.00    811.82     25.08
      2000   67.6340  1.384001    614.00    795.83     24.78
      2001   67.6630  1.383479    643.00    781.30     25.36
      2002   67.6920  1.382956    657.00    769.35     25.63
      2003   67.7210  1.382435    714.00    760.82     26.72
      2004   67.7500  1.381914    732.00    755.86     27.06
      2005   67.7790  1.381393    759.00    754.43     27.55
      2006   67.8080  1.380873    816.00    756.32     28.57
      2007   67.8370  1.380353    793.00    761.24     28.16
      2008   67.8670  1.379816    695.00    769.17     26.36
      2009   67.8960  1.379297    627.00    779.25     25.04
      2010   67.9250  1.378779    630.00    791.52     25.10
      2011   67.9540  1.378261    630.00    806.17     25.10
      2012   67.9830  1.377744    665.00    823.92     25.79
      2013   68.0120  1.377227    647.00    846.17     25.44
      2014   68.0410  1.376710    708.00    873.30     26.61
      2015   68.0700  1.376194    622.00    907.50     24.94
      2016   68.0990  1.375679    607.00    948.04     24.64
      2017   68.1280  1.375164    611.00    993.51     24.72
      2018   68.1570  1.374650    657.00   1040.98     25.63
      2019   68.1860  1.374136    584.00   1086.34     24.17
      2020   68.2150  1.373622    588.00   1125.06     24.25
      2021   68.2440  1.373109    575.00   1152.94     23.98
      2022   68.2740  1.372579    578.00   1166.41     24.04
      2023   68.3030  1.372067    680.00   1163.27     26.08
      2024   68.3320  1.371555    656.00   1143.92     25.61
      2025   68.3610  1.371044    638.00   1111.55     25.26
      2026   68.3900  1.370533    713.00   1070.64     26.70
      2027   68.4190  1.370023    622.00   1025.45     24.94
      2028   68.4480  1.369513    562.00    979.66     23.71
      2029   68.4770  1.369004    606.00    936.30     24.62
      2030   68.5060  1.368495    652.00    897.67     25.53
      2031   68.5350  1.367987    678.00    865.07     26.04
      2032   68.5640  1.367479    750.00    838.90     27.39
      2033   68.5930  1.366971    802.00    818.85     28.32
      2034   68.6230  1.366447    848.00    803.76     29.12
      2035   68.6520  1.365940    911.00    793.67     30.18
      2036   68.6810  1.365434    956.00    787.28     30.92
      2037   68.7100  1.364929    969.00    783.32     31.13
      2038   68.7390  1.364424    952.00    781.28     30.85
      2039   68.7680  1.363919    846.00    780.60     29.09
      2040   68.7970  1.363415    889.00    780.88     29.82
      2041   68.8260  1.362911    900.00    781.82     30.00
      2042   68.8550  1.362408    794.00    783.21     28.18
      2043   68.8840  1.361905    783.00    784.97     27.98
      2044   68.9130  1.361403    814.00    787.00     28.53
      2045   68.9420  1.360901    833.00    789.26     28.86
      2046   68.9710  1.360400    798.00    791.72     28.25
      2047   69.0000  1.359899    880.00    793.93     29.66
      2048   69.0290  1.359398    874.00    796.83     29.56
      2049   69.0580  1.358898    792.00    799.99     28.14
      2050   69.0870  1.358398    713.00    803.00     26.70
      2051   69.1160  1.357899    691.00    806.80     26.29
      2052   69.1450  1.357401    661.00    811.00     25.71
      2053   69.1740  1.356902    663.00    815.65     25.75
      2054   69.2030  1.356404    711.00    820.77     26.66
      2055   69.2320  1.355907    771.00    826.35     27.77
      2056   69.2610  1.355410    756.00    832.63     27.50
      2057   69.2900  1.354914    735.00    838.97     27.11
      2058   69.3190  1.354418    821.00    845.52     28.65
      2059   69.3490  1.353905    765.00    852.36     27.66
      2060   69.3780  1.353410    842.00    858.95     29.02
      2061   69.4070  1.352916    879.00    865.64     29.65
      2062   69.4360  1.352421    842.00    872.77     29.02
      2063   69.4650  1.351928    917.00    881.31     30.28
      2064   69.4940  1.351434    959.00    892.10     30.97
      2065   69.5230  1.350941   1015.00    906.20     31.86
      2066   69.5520  1.350449   1040.00    924.64     32.25
      2067   69.5810  1.349957   1116.00    948.33     33.41
      2068   69.6100  1.349466   1098.00    977.95     33.14
      2069   69.6390  1.348975   1069.00   1013.81     32.70
      2070   69.6680  1.348484   1096.00   1055.59     33.11
      2071   69.6970  1.347994   1036.00   1102.16     32.19
      2072   69.7260  1.347504   1089.00   1151.50     33.00
      2073   69.7550  1.347015   1096.00   1201.33     33.11
      2074   69.7840  1.346526   1207.00   1248.35     34.74
      2075   69.8130  1.346038   1204.00   1290.88     34.70
      2076   69.8420  1.345549   1301.00   1326.76     36.07
      2077   69.8710  1.345062   1418.00   1353.72     37.66
      2078   69.9010  1.344558   1575.00   1369.45     39.69
      2079   69.9300  1.344072   1613.00   1373.30     40.16
      2080   69.9590  1.343585   1640.00   1367.77     40.50
      2081   69.9880  1.343100   1619.00   1357.85     40.24
      2082   70.0170  1.342614   1803.00   1349.94     42.46
      2083   70.0460  1.342129   1760.00   1348.57     41.95
      2084   70.0750  1.341645   1769.00   1356.01     42.06
      2085   70.1050  1.341144   1912.00   1372.75     43.73
      2086   70.1340  1.340661   2077.00   1393.51     45.57
      2087   70.1630  1.340177   2142.00   1413.21     46.28
      2088   70.1920  1.339695   1980.00   1424.96     44.50
      2089   70.2210  1.339213   2015.00   1422.91     44.89
      2090   70.2500  1.338731   2071.00   1405.33     45.51
      2091   70.2790  1.338249   1946.00   1374.97     44.11
      2092   70.3080  1.337768   2028.00   1337.34     45.03
      2093   70.3370  1.337288   1950.00   1298.14     44.16
      2094   70.3660  1.336808   2014.00   1261.67     44.88
      2095   70.3950  1.336328   2058.00   1230.52     45.37
      2096   70.4240  1.335849   2095.00   1205.73     45.77
      2097   70.4530  1.335370   2005.00   1187.40     44.78
      2098   70.4820  1.334892   2145.00   1174.68     46.31
      2099   70.5110  1.334414   2028.00   1165.93     45.03
      2100   70.5400  1.333936   2109.00   1158.70     45.92
      2101   70.5690  1.333459   2151.00   1150.29     46.38
      2102   70.5980  1.332982   2146.00   1138.71     46.32
      2103   70.6270  1.332506   1945.00   1123.50     44.10
      2104   70.6560  1.332030   1828.00   1105.59     42.76
      2105   70.6850  1.331555   1632.00   1086.58     40.40
      2106   70.7140  1.331080   1526.00   1068.03     39.06
      2107   70.7430  1.330606   1576.00   1051.37     39.70
      2108   70.7720  1.330131   1484.00   1037.39     38.52
      2109   70.8010  1.329657   1590.00   1026.21     39.87
      2110   70.8300  1.329184   1610.00   1018.21     40.12
      2111   70.8600  1.328695   1622.00   1013.10     40.27
      2112   70.8890  1.328223   1658.00   1011.04     40.72
      2113   70.9180  1.327751   1622.00   1011.57     40.27
      2114   70.9470  1.327279   1731.00   1014.71     41.61
      2115   70.9760  1.326808   1668.00   1020.46     40.84
      2116   71.0050  1.326337   1601.00   1028.94     40.01
      2117   71.0340  1.325867   1700.00   1040.37     41.23
      2118   71.0630  1.325397   1651.00   1054.47     40.63
      2119   71.0920  1.324927   1560.00   1071.26     39.50
      2120   71.1210  1.324458   1441.00   1090.26     37.96
      2121   71.1500  1.323990   1439.00   1110.60     37.93
      2122   71.1790  1.323521   1400.00   1130.90     37.42
      2123   71.2080  1.323054   1369.00   1149.28     37.00
      2124   71.2370  1.322586   1343.00   1163.52     36.65
      2125   71.2660  1.322119   1367.00   1171.59     36.97
      2126   71.2950  1.321653   1456.00   1172.33     38.16
      2127   71.3240  1.321187   1392.00   1166.35     37.31
      2128   71.3530  1.320721   1348.00   1155.51     36.72
      2129   71.3820  1.320255   1229.00   1142.13     35.06
      2130   71.4110  1.319790   1217.00   1128.29     34.89
      2131   71.4400  1.319326   1336.00   1115.66     36.55
      2132   71.4700  1.318846   1272.00   1105.38     35.67
      2133   71.4990  1.318382   1381.00   1098.26     37.16
      2134   71.5280  1.317919   1331.00   1094.81     36.48
      2135   71.5570  1.317456   1316.00   1095.34     36.28
      2136   71.5860  1.316994   1266.00   1100.10     35.58
      2137   71.6160  1.316516   1144.00   1109.45     33.82
      2138   71.6450  1.316054   1241.00   1122.88     35.23
      2139   71.6740  1.315593   1386.00   1140.53     37.23
      2140   71.7030  1.315132   1479.00   1162.06     38.46
      2141   71.7320  1.314672   1390.00   1186.77     37.28
      2142   71.7610  1.314212   1354.00   1213.50     36.80
      2143   71.7900  1.313752   1404.00   1240.52     37.47
      2144   71.8190  1.313293   1373.00   1265.66     37.05
      2145   71.8480  1.312834   1292.00   1285.72     35.94
      2146   71.8770  1.312376   1230.00   1298.38     35.07
      2147   71.9060  1.311918   1236.00   1301.67     35.16
      2148   71.9350  1.311460   1270.00   1296.29     35.64
      2149   71.9640  1.311003   1358.00   1284.65     36.85
      2150   71.9930  1.310546   1289.00   1269.86     35.90
      2151   72.0220  1.310090   1249.00   1254.94     35.34
      2152   72.0510  1.309634   1314.00   1242.38     36.25
      2153   72.0800  1.309178   1273.00   1234.12     35.68
      2154   72.1090  1.308723   1311.00   1231.66     36.21
      2155   72.1380  1.308269   1318.00   1236.08     36.30
      2156   72.1670  1.307814   1329.00   1248.14     36.46
      2157   72.1960  1.307360   1348.00   1268.10     36.72
      2158   72.2250  1.306907   1307.00   1295.62     36.15
      2159   72.2540  1.306454   1326.00   1329.62     36.41
      2160   72.2830  1.306001   1373.00   1368.17     37.05
      2161   72.3120  1.305548   1357.00   1408.29     36.84
      2162   72.3420  1.305081   1325.00   1447.75     36.40
      2163   72.3710  1.304629   1349.00   1479.43     36.73
      2164   72.4000  1.304178   1403.00   1500.88     37.46
      2165   72.4290  1.303727   1378.00   1510.26     37.12
      2166   72.4580  1.303277   1366.00   1508.40     36.96
      2167   72.4870  1.302827   1314.00   1499.46     36.25
      2168   72.5160  1.302377   1358.00   1487.55     36.85
      2169   72.5450  1.301928   1353.00   1477.21     36.78
      2170   72.5740  1.301480   1455.00   1471.68     38.14
      2171   72.6030  1.301031   1487.00   1471.91     38.56
      2172   72.6320  1.300583   1534.00   1478.02     39.17
      2173   72.6610  1.300135   1575.00   1488.34     39.69
      2174   72.6900  1.299688   1685.00   1499.93     41.05
      2175   72.7190  1.299241   1671.00   1508.93     40.88
      2176   72.7480  1.298795   1736.00   1511.32     41.67
      2177   72.7770  1.298349   1613.00   1504.14     40.16
      2178   72.8060  1.297903   1673.00   1486.60     40.90
      2179   72.8350  1.297458   1709.00   1461.30     41.34
      2180   72.8640  1.297013   1710.00   1430.71     41.35
      2181   72.8930  1.296569   1699.00   1398.05     41.22
      2182   72.9220  1.296125   1697.00   1365.99     41.19
      2183   72.9510  1.295681   1808.00   1336.77     42.52
      2184   72.9800  1.295237   1718.00   1311.85     41.45
      2185   73.0100  1.294779   1846.00   1291.96     42.97
      2186   73.0390  1.294337   1894.00   1277.57     43.52
      2187   73.0680  1.293895   1904.00   1268.59     43.63
      2188   73.0980  1.293438   1871.00   1264.88     43.26
      2189   73.1270  1.292996   1796.00   1266.56     42.38
      2190   73.1560  1.292555   1834.00   1273.46     42.83
      2191   73.1850  1.292115   1868.00   1285.72     43.22
      2192   73.2140  1.291674   1730.00   1303.88     41.59
      2193   73.2430  1.291235   1747.00   1328.06     41.80
      2194   73.2720  1.290795   1636.00   1358.25     40.45
      2195   73.3010  1.290356   1614.00   1394.01     40.17
      2196   73.3300  1.289917   1606.00   1434.29     40.07
      2197   73.3590  1.289479   1503.00   1477.26     38.77
      2198   73.3880  1.289041   1541.00   1520.21     39.26
      2199   73.4170  1.288603   1506.00   1559.57     38.81
      2200   73.4460  1.288166   1494.00   1591.25     38.65
      2201   73.4750  1.287729   1440.00   1611.86     37.95
      2202   73.5040  1.287293   1442.00   1620.09     37.97
      2203   73.5330  1.286857   1399.00   1617.44     37.40
      2204   73.5620  1.286421   1355.00   1607.30     36.81
      2205   73.5910  1.285986   1398.00   1593.33     37.39
      2206   73.6200  1.285551   1453.00   1578.20     38.12
      2207   73.6490  1.285116   1489.00   1563.18     38.59
      2208   73.6780  1.284682   1549.00   1548.22     39.36
      2209   73.7070  1.284248   1573.00   1532.66     39.66
      2210   73.7360  1.283815   1572.00   1515.39     39.65
      2211   73.7650  1.283382   1590.00   1496.45     39.87
      2212   73.7940  1.282949   1607.00   1476.63     40.09
      2213   73.8230  1.282517   1705.00   1457.39     41.29
      2214   73.8530  1.282070   1754.00   1439.33     41.88
      2215   73.8820  1.281639   1871.00   1424.43     43.26
      2216   73.9110  1.281208   1826.00   1412.10     42.73
      2217   73.9400  1.280777   1921.00   1402.60     43.83
      2218   73.9690  1.280346   1927.00   1395.39     43.90
      2219   73.9980  1.279916   1994.00   1390.27     44.65
      2220   74.0270  1.279487   2048.00   1386.93     45.25
      2221   74.0560  1.279057   1992.00   1385.48     44.63
      2222   74.0850  1.278628   2114.00   1386.06     45.98
      2223   74.1140  1.278200   2303.00   1388.80     47.99
      2224   74.1430  1.277772   2313.00   1393.41     48.09
      2225   74.1720  1.277344   2284.00   1399.93     47.79
      2226   74.2010  1.276916   2406.00   1408.34     49.05
      2227   74.2300  1.276489   2358.00   1418.65     48.56
      2228   74.2590  1.276062   2102.00   1430.88     45.85
      2229   74.2880  1.275636   1954.00   1445.03     44.20
      2230   74.3170  1.275210   1819.00   1461.48     42.65
      2231   74.3460  1.274785   1705.00   1480.08     41.29
      2232   74.3750  1.274359   1599.00   1501.45     39.99
      2233   74.4040  1.273934   1659.00   1525.42     40.73
      2234   74.4330  1.273510   1668.00   1551.38     40.84
      2235   74.4620  1.273086   1578.00   1577.74     39.72
      2236   74.4910  1.272662   1593.00   1602.06     39.91
      2237   74.5210  1.272224   1525.00   1621.27     39.05
      2238   74.5500  1.271801   1558.00   1632.10     39.47
      2239   74.5800  1.271363   1599.00   1632.66     39.99
      2240   74.6090  1.270941   1554.00   1622.21     39.42
      2241   74.6380  1.270519   1554.00   1602.40     39.42
      2242   74.6670  1.270098   1641.00   1576.03     40.51
      2243   74.6960  1.269676   1581.00   1546.09     39.76
      2244   74.7250  1.269256   1650.00   1515.81     40.62
      2245   74.7540  1.268835   1522.00   1487.26     39.01
      2246   74.7830  1.268415   1545.00   1462.23     39.31
      2247   74.8120  1.267995   1670.00   1441.66     40.87
      2248   74.8410  1.267576   1673.00   1426.03     40.90
      2249   74.8700  1.267156   1639.00   1415.44     40.48
      2250   74.8990  1.266738   1700.00   1409.78     41.23
      2251   74.9280  1.266319   1751.00   1408.89     41.85
      2252   74.9570  1.265901   1740.00   1412.59     41.71
      2253   74.9860  1.265484   1664.00   1420.89     40.79
      2254   75.0150  1.265067   1519.00   1433.83     38.97
      2255   75.0440  1.264650   1241.00   1451.60     35.23
      2256   75.0730  1.264233   1369.00   1473.60     37.00
      2257   75.1020  1.263817   1568.00   1500.36     39.60
      2258   75.1310  1.263401   1622.00   1530.78     40.27
      2259   75.1600  1.262985   1553.00   1563.80     39.41
      2260   75.1890  1.262570   1434.00   1597.70     37.87
      2261   75.2180  1.262155   1491.00   1630.26     38.61
      2262   75.2470  1.261741   1545.00   1658.56     39.31
      2263   75.2760  1.261327   1669.00   1679.51     40.85
      2264   75.3050  1.260913   1628.00   1690.33     40.35
      2265   75.3350  1.260485   1506.00   1689.22     38.81
      2266   75.3640  1.260072   1645.00   1676.86     40.56
      2267   75.3930  1.259660   1619.00   1655.92     40.24
      2268   75.4220  1.259247   1687.00   1629.92     41.07
      2269   75.4510  1.258835   1685.00   1601.98     41.05
      2270   75.4800  1.258424   1733.00   1575.50     41.63
      2271   75.5090  1.258012   1776.00   1552.00     42.14
      2272   75.5380  1.257601   1889.00   1532.40     43.46
      2273   75.5670  1.257191   1795.00   1517.01     42.37
      2274   75.5960  1.256781   1815.00   1505.28     42.60
      2275   75.6250  1.256371   1816.00   1496.33     42.61
      2276   75.6540  1.255961   1808.00   1489.16     42.52
      2277   75.6830  1.255552   1855.00   1482.92     43.07
      2278   75.7120  1.255143   1943.00   1477.15     44.08
      2279   75.7410  1.254735   1969.00   1471.77     44.37
      2280   75.7700  1.254326   2002.00   1466.75     44.74
      2281   75.7990  1.253919   1949.00   1462.20     44.15
      2282   75.8280  1.253511   1941.00   1458.16     44.06
      2283   75.8570  1.253104   1897.00   1454.66     43.55
      2284   75.8860  1.252697   1846.00   1451.68     42.97
      2285   75.9150  1.252291   1801.00   1449.41     42.44
      2286   75.9440  1.251885   1734.00   1447.67     41.64
      2287   75.9730  1.251479   1814.00   1446.70     42.59
      2288   76.0020  1.251074   1866.00   1446.60     43.20
      2289   76.0320  1.250655   1908.00   1447.50     43.68
      2290   76.0610  1.250250   1864.00   1449.51     43.17
      2291   76.0910  1.249832   1888.00   1453.07     43.45
      2292   76.1200  1.249428   1880.00   1458.02     43.36
      2293   76.1490  1.249024   1917.00   1464.96     43.78
      2294   76.1780  1.248621   1864.00   1474.11     43.17
      2295   76.2070  1.248218   1855.00   1486.41     43.07
      2296   76.2360  1.247815   1719.00   1502.49     41.46
      2297   76.2650  1.247413   1699.00   1522.99     41.22
      2298   76.2940  1.247011   1703.00   1548.46     41.27
      2299   76.3230  1.246609   1613.00   1579.15     40.16
      2300   76.3520  1.246208   1648.00   1614.78     40.60
      2301   76.3810  1.245807   1522.00   1654.47     39.01
      2302   76.4100  1.245406   1567.00   1696.66     39.59
      2303   76.4390  1.245006   1547.00   1738.39     39.33
      2304   76.4680  1.244606   1634.00   1776.79     40.42
      2305   76.4970  1.244206   1693.00   1808.14     41.15
      2306   76.5260  1.243807   1747.00   1829.13     41.80
      2307   76.5550  1.243408   1766.00   1838.00     42.02
      2308   76.5840  1.243010   1873.00   1835.10     43.28
      2309   76.6130  1.242611   1722.00   1822.65     41.50
      2310   76.6420  1.242213   1834.00   1804.12     42.83
      2311   76.6710  1.241816   1791.00   1783.20     42.32
      2312   76.7000  1.241419   1793.00   1763.06     42.34
      2313   76.7290  1.241022   1767.00   1745.84     42.04
      2314   76.7580  1.240625   1746.00   1732.67     41.79
      2315   76.7870  1.240229   1915.00   1723.53     43.76
      2316   76.8170  1.239819   1969.00   1717.66     44.37
      2317   76.8460  1.239424   1996.00   1714.60     44.68
      2318   76.8750  1.239028   2100.00   1713.51     45.83
      2319   76.9040  1.238633   2107.00   1714.02     45.90
      2320   76.9330  1.238239   2206.00   1715.97     46.97
      2321   76.9620  1.237844   2230.00   1719.26     47.22
      2322   76.9910  1.237451   2240.00   1723.81     47.33
      2323   77.0200  1.237057   2254.00   1729.89     47.48
      2324   77.0490  1.236664   2228.00   1737.06     47.20
      2325   77.0780  1.236271   2135.00   1744.93     46.21
      2326   77.1070  1.235878   2033.00   1752.19     45.09
      2327   77.1360  1.235486   1890.00   1757.29     43.47
      2328   77.1650  1.235094   1819.00   1758.99     42.65
      2329   77.1940  1.234702   1832.00   1756.96     42.80
      2330   77.2230  1.234311   1802.00   1752.01     42.45
      2331   77.2520  1.233920   1821.00   1745.72     42.67
      2332   77.2810  1.233529   1754.00   1739.90     41.88
      2333   77.3100  1.233139   1825.00   1735.98     42.72
      2334   77.3390  1.232749   1820.00   1735.27     42.66
      2335   77.3680  1.232359   1729.00   1737.61     41.58
      2336   77.3970  1.231970   1725.00   1743.00     41.53
      2337   77.4260  1.231581   1817.00   1750.18     42.63
      2338   77.4550  1.231192   1704.00   1757.59     41.28
      2339   77.4840  1.230804   1729.00   1763.28     41.58
      2340   77.5140  1.230402   1691.00   1765.14     41.12
      2341   77.5430  1.230015   1596.00   1761.51     39.95
      2342   77.5730  1.229614   1638.00   1751.27     40.47
      2343   77.6020  1.229227   1649.00   1735.73     40.61
      2344   77.6310  1.228840   1549.00   1716.33     39.36
      2345   77.6600  1.228454   1628.00   1695.28     40.35
      2346   77.6890  1.228068   1704.00   1674.78     41.28
      2347   77.7180  1.227682   1862.00   1656.61     43.15
      2348   77.7470  1.227296   1975.00   1641.92     44.44
      2349   77.7760  1.226911   1906.00   1631.52     43.66
      2350   77.8050  1.226526   1941.00   1624.88     44.06
      2351   77.8340  1.226142   1957.00   1621.79     44.24
      2352   77.8630  1.225758   1936.00   1621.42     44.00
      2353   77.8920  1.225374   2160.00   1622.49     46.48
      2354   77.9210  1.224990   2144.00   1623.74     46.30
      2355   77.9500  1.224607   2180.00   1623.98     46.69
      2356   77.9790  1.224224   2223.00   1622.60     47.15
      2357   78.0080  1.223842   2290.00   1619.34     47.85
      2358   78.0370  1.223459   2172.00   1614.32     46.60
      2359   78.0660  1.223078   2131.00   1607.74     46.16
      2360   78.0950  1.222696   2108.00   1599.90     45.91
      2361   78.1240  1.222315   1879.00   1590.61     43.35
      2362   78.1530  1.221934   1908.00   1580.80     43.68
      2363   78.1820  1.221553   1830.00   1570.60     42.78
      2364   78.2110  1.221173   1849.00   1560.54     43.00
      2365   78.2400  1.220793   1804.00   1551.00     42.47
      2366   78.2690  1.220413   1718.00   1542.39     41.45
      2367   78.2980  1.220034   1806.00   1535.05     42.50
      2368   78.3280  1.219641   1849.00   1529.04     43.00
      2369   78.3570  1.219262   1835.00   1524.91     42.84
      2370   78.3860  1.218884   1944.00   1522.46     44.09
      2371   78.4150  1.218506   1997.00   1521.61     44.69
      2372   78.4440  1.218128   2054.00   1522.30     45.32
      2373   78.4730  1.217751   2032.00   1524.42     45.08
      2374   78.5020  1.217373   2034.00   1528.11     45.10
      2375   78.5310  1.216996   1913.00   1533.44     43.74
      2376   78.5600  1.216620   1972.00   1540.51     44.41
      2377   78.5890  1.216244   1948.00   1549.35     44.14
      2378   78.6180  1.215868   1980.00   1559.84     44.50
      2379   78.6470  1.215492   2016.00   1571.74     44.90
      2380   78.6760  1.215117   1860.00   1584.77     43.13
      2381   78.7050  1.214741   1703.00   1598.59     41.27
      2382   78.7340  1.214367   1618.00   1612.89     40.22
      2383   78.7630  1.213992   1588.00   1627.19     39.85
      2384   78.7920  1.213618   1570.00   1640.94     39.62
      2385   78.8210  1.213244   1580.00   1653.61     39.75
      2386   78.8500  1.212871   1507.00   1664.92     38.82
      2387   78.8790  1.212498   1578.00   1675.18     39.72
      2388   78.9080  1.212125   1461.00   1684.67     38.22
      2389   78.9370  1.211752   1599.00   1694.02     39.99
      2390   78.9670  1.211367   1535.00   1703.42     39.18
      2391   78.9960  1.210995   1665.00   1712.53     40.80
      2392   79.0250  1.210624   1639.00   1720.82     40.48
      2393   79.0540  1.210252   1604.00   1727.63     40.05
      2394   79.0840  1.209868   1604.00   1732.40     40.05
      2395   79.1130  1.209498   1606.00   1734.08     40.07
      2396   79.1420  1.209127   1652.00   1732.28     40.64
      2397   79.1710  1.208757   1663.00   1726.81     40.78
      2398   79.2000  1.208387   1627.00   1717.96     40.34
      2399   79.2290  1.208018   1645.00   1706.75     40.56
      2400   79.2580  1.207649   1599.00   1693.92     39.99
      2401   79.2870  1.207280   1676.00   1680.25     40.94
      2402   79.3160  1.206911   1644.00   1665.82     40.55
      2403   79.3450  1.206543   1582.00   1650.36     39.77
      2404   79.3740  1.206175   1591.00   1634.18     39.89
      2405   79.4030  1.205807   1621.00   1617.28     40.26
      2406   79.4320  1.205440   1577.00   1600.41     39.71
      2407   79.4610  1.205073   1682.00   1584.39     41.01
      2408   79.4900  1.204706   1678.00   1569.70     40.96
      2409   79.5190  1.204339   1683.00   1556.72     41.02
      2410   79.5480  1.203973   1676.00   1545.65     40.94
      2411   79.5770  1.203607   1710.00   1536.71     41.35
      2412   79.6060  1.203242   1777.00   1529.77     42.15
      2413   79.6350  1.202876   1752.00   1524.95     41.86
      2414   79.6640  1.202511   1784.00   1522.24     42.24
      2415   79.6930  1.202147   1776.00   1521.50     42.14
      2416   79.7220  1.201782   1774.00   1522.92     42.12
      2417   79.7510  1.201418   1854.00   1526.48     43.06
      2418   79.7800  1.201054   1758.00   1531.90     41.93
      2419   79.8100  1.200678   1652.00   1539.04     40.64
      2420   79.8390  1.200315   1644.00   1547.07     40.55
      2421   79.8680  1.199952   1688.00   1555.29     41.09
      2422   79.8970  1.199590   1666.00   1562.80     40.82
      2423   79.9260  1.199227   1676.00   1568.34     40.94
      2424   79.9550  1.198865   1641.00   1571.12     40.51
      2425   79.9840  1.198503   1572.00   1570.25     39.65
      2426   80.0130  1.198142   1747.00   1565.65     41.80
      2427   80.0420  1.197781   1746.00   1557.58     41.79
      2428   80.0710  1.197420   1730.00   1547.48     41.59
      2429   80.1000  1.197060   1729.00   1536.28     41.58
      2430   80.1290  1.196700   1675.00   1525.21     40.93
      2431   80.1580  1.196339   1544.00   1515.03     39.29
      2432   80.1870  1.195980   1601.00   1506.22     40.01
      2433   80.2160  1.195620   1602.00   1498.90     40.03
      2434   80.2450  1.195261   1530.00   1492.88     39.12
      2435   80.2740  1.194902   1678.00   1487.74     40.96
      2436   80.3030  1.194544   1752.00   1482.99     41.86
      2437   80.3320  1.194186   1753.00   1478.28     41.87
      2438   80.3610  1.193828   1723.00   1473.61     41.51
      2439   80.3910  1.193458   1661.00   1469.29     40.76
      2440   80.4200  1.193101   1590.00   1465.94     39.87
      2441   80.4490  1.192744   1576.00   1464.56     39.70
      2442   80.4780  1.192387   1626.00   1465.64     40.32
      2443   80.5070  1.192030   1684.00   1470.11     41.04
      2444   80.5360  1.191674   1558.00   1478.15     39.47
      2445   80.5660  1.191306   1511.00   1490.56     38.87
      2446   80.5950  1.190951   1459.00   1506.06     38.20
      2447   80.6240  1.190595   1385.00   1524.51     37.22
      2448   80.6530  1.190240   1348.00   1544.85     36.72
      2449   80.6820  1.189886   1380.00   1565.56     37.15
      2450   80.7110  1.189531   1374.00   1584.75     37.07
      2451   80.7400  1.189177   1457.00   1600.23     38.17
      2452   80.7690  1.188823   1390.00   1610.09     37.28
      2453   80.7980  1.188470   1521.00   1612.85     39.00
      2454   80.8270  1.188116   1492.00   1608.43     38.63
      2455   80.8560  1.187763   1505.00   1597.57     38.79
      2456   80.8850  1.187411   1505.00   1581.95     38.79
      2457   80.9140  1.187058   1595.00   1563.07     39.94
      2458   80.9430  1.186706   1587.00   1542.51     39.84
      2459   80.9720  1.186354   1573.00   1521.57     39.66
      2460   81.0010  1.186003   1510.00   1501.26     38.86
      2461   81.0300  1.185651   1550.00   1482.16     39.37
      2462   81.0590  1.185300   1507.00   1464.78     38.82
      2463   81.0880  1.184950   1571.00   1449.14     39.64
      2464   81.1170  1.184599   1511.00   1435.32     38.87
      2465   81.1460  1.184249   1523.00   1422.85     39.03
      2466   81.1750  1.183899   1412.00   1411.70     37.58
      2467   81.2040  1.183550   1331.00   1401.67     36.48
      2468   81.2330  1.183200   1333.00   1392.52     36.51
      2469   81.2620  1.182851   1356.00   1384.09     36.82
      2470   81.2910  1.182503   1407.00   1376.33     37.51
      2471   81.3210  1.182142   1324.00   1368.91     36.39
      2472   81.3500  1.181794   1298.00   1362.43     36.03
      2473   81.3790  1.181446   1294.00   1356.68     35.97
      2474   81.4080  1.181099   1309.00   1351.67     36.18
      2475   81.4370  1.180751   1349.00   1347.37     36.73
      2476   81.4660  1.180404   1346.00   1343.70     36.69
      2477   81.4950  1.180058   1344.00   1340.58     36.66
      2478   81.5240  1.179711   1216.00   1337.96     34.87
      2479   81.5530  1.179365   1175.00   1335.87     34.28
      2480   81.5820  1.179019   1155.00   1334.55     33.99
      2481   81.6110  1.178673   1145.00   1333.90     33.84
      2482   81.6400  1.178328   1115.00   1334.34     33.39
      2483   81.6690  1.177983   1073.00   1336.05     32.76
      2484   81.6980  1.177638   1009.00   1339.17     31.76
      2485   81.7270  1.177294    967.00   1343.77     31.10
      2486   81.7560  1.176949    973.00   1349.81     31.19
      2487   81.7850  1.176605    952.00   1356.90     30.85
      2488   81.8150  1.176250   1073.00   1364.94     32.76
      2489   81.8440  1.175906   1057.00   1373.42     32.51
      2490   81.8730  1.175563   1079.00   1381.34     32.85
      2491   81.9020  1.175220   1049.00   1388.12     32.39
      2492   81.9310  1.174878   1056.00   1393.08     32.50
      2493   81.9600  1.174535    994.00   1395.84     31.53
      2494   81.9890  1.174193   1043.00   1396.56     32.30
      2495   82.0180  1.173851   1065.00   1395.74     32.63
      2496   82.0480  1.173498   1128.00   1394.10     33.59
      2497   82.0770  1.173157   1142.00   1392.72     33.79
      2498   82.1060  1.172816   1082.00   1392.01     32.89
      2499   82.1350  1.172475   1141.00   1392.85     33.78
      2500   82.1640  1.172135   1153.00   1395.16     33.96
      2501   82.1930  1.171795   1142.00   1398.69     33.79
      2502   82.2220  1.171455   1074.00   1402.83     32.77
      2503   82.2510  1.171116   1184.00   1406.69     34.41
      2504   82.2800  1.170776   1181.00   1409.27     34.37
      2505   82.3090  1.170437   1268.00   1409.56     35.61
      2506   82.3380  1.170099   1287.00   1407.01     35.87
      2507   82.3670  1.169760   1227.00   1401.66     35.03
      2508   82.3960  1.169422   1274.00   1393.65     35.69
      2509   82.4250  1.169084   1421.00   1383.96     37.70
      2510   82.4540  1.168746   1416.00   1373.65     37.63
      2511   82.4830  1.168409   1307.00   1363.79     36.15
      2512   82.5120  1.168072   1424.00   1355.20     37.74
      2513   82.5410  1.167735   1402.00   1348.62     37.44
      2514   82.5700  1.167398   1417.00   1344.06     37.64
      2515   82.5990  1.167062   1388.00   1341.57     37.26
      2516   82.6280  1.166726   1520.00   1340.81     38.99
      2517   82.6570  1.166390   1470.00   1341.38     38.34
      2518   82.6860  1.166054   1533.00   1342.92     39.15
      2519   82.7150  1.165719   1503.00   1345.30     38.77
      2520   82.7440  1.165384   1584.00   1348.52     39.80
      2521   82.7730  1.165049   1630.00   1352.62     40.37
      2522   82.8030  1.164703   1612.00   1357.66     40.15
      2523   82.8320  1.164369   1627.00   1362.87     40.34
      2524   82.8610  1.164035   1648.00   1367.86     40.60
      2525   82.8900  1.163702   1573.00   1372.05     39.66
      2526   82.9190  1.163368   1535.00   1374.66     39.18
      2527   82.9480  1.163035   1553.00   1375.29     39.41
      2528   82.9770  1.162702   1353.00   1373.34     36.78
      2529   83.0060  1.162370   1480.00   1368.16     38.47
      2530   83.0350  1.162037   1337.00   1359.69     36.56
      2531   83.0640  1.161705   1345.00   1347.80     36.67
      2532   83.0930  1.161373   1266.00   1333.07     35.58
      2533   83.1220  1.161042   1281.00   1316.30     35.79
      2534   83.1510  1.160711   1281.00   1298.77     35.79
      2535   83.1810  1.160368   1358.00   1281.57     36.85
      2536   83.2100  1.160038   1292.00   1265.74     35.94
      2537   83.2390  1.159707   1382.00   1251.99     37.18
      2538   83.2680  1.159377   1414.00   1240.82     37.60
      2539   83.2970  1.159047   1381.00   1232.28     37.16
      2540   83.3260  1.158717   1388.00   1226.34     37.26
      2541   83.3550  1.158388   1475.00   1222.77     38.41
      2542   83.3840  1.158059   1480.00   1221.23     38.47
      2543   83.4130  1.157730   1471.00   1221.33     38.35
      2544   83.4420  1.157401   1524.00   1222.81     39.04
      2545   83.4710  1.157073   1428.00   1225.59     37.79
      2546   83.5000  1.156745   1379.00   1229.67     37.13
      2547   83.5290  1.156417   1448.00   1235.01     38.05
      2548   83.5590  1.156078   1455.00   1241.69     38.14
      2549   83.5880  1.155751   1459.00   1248.74     38.20
      2550   83.6170  1.155424   1408.00   1255.76     37.52
      2551   83.6460  1.155097   1414.00   1261.92     37.60
      2552   83.6750  1.154770   1361.00   1266.37     36.89
      2553   83.7040  1.154444   1270.00   1268.58     35.64
      2554   83.7330  1.154118   1377.00   1267.91     37.11
      2555   83.7620  1.153792   1391.00   1264.58     37.30
      2556   83.7910  1.153466   1394.00   1259.02     37.34
      2557   83.8200  1.153141   1379.00   1251.51     37.13
      2558   83.8490  1.152816   1334.00   1242.96     36.52
      2559   83.8780  1.152491   1357.00   1233.39     36.84
      2560   83.9070  1.152167   1217.00   1223.08     34.89
      2561   83.9360  1.151843   1066.00   1212.16     32.65
      2562   83.9650  1.151519   1043.00   1201.30     32.30
      2563   83.9940  1.151195   1016.00   1191.11     31.87
      2564   84.0230  1.150872   1140.00   1182.38     33.76
      2565   84.0520  1.150548   1340.00   1175.68     36.61
      2566   84.0810  1.150225   1322.00   1171.45     36.36
      2567   84.1100  1.149903   1326.00   1169.77     36.41
      2568   84.1390  1.149580   1197.00   1170.49     34.60
      2569   84.1680  1.149258   1311.00   1173.15     36.21
      2570   84.1970  1.148936   1417.00   1177.18     37.64
      2571   84.2260  1.148614   1436.00   1181.55     37.89
      2572   84.2550  1.148293   1359.00   1185.22     36.86
      2573   84.2840  1.147972   1334.00   1187.21     36.52
      2574   84.3140  1.147640   1247.00   1186.72     35.31
      2575   84.3430  1.147319   1245.00   1183.76     35.28
      2576   84.3720  1.146999   1234.00   1178.46     35.13
      2577   84.4010  1.146679   1180.00   1171.29     34.35
      2578   84.4300  1.146359   1111.00   1162.89     33.33
      2579   84.4590  1.146039   1066.00   1153.81     32.65
      2580   84.4880  1.145720   1037.00   1144.61     32.20
      2581   84.5170  1.145401    984.00   1135.85     31.37
      2582   84.5460  1.145082    887.00   1128.07     29.78
      2583   84.5760  1.144752    894.00   1121.75     29.90
      2584   84.6050  1.144433    865.00   1117.21     29.41
      2585   84.6340  1.144115    842.00   1114.65     29.02
      2586   84.6630  1.143798    811.00   1114.09     28.48
      2587   84.6920  1.143480    756.00   1115.20     27.50
      2588   84.7210  1.143162    682.00   1117.60     26.12
      2589   84.7500  1.142845    678.00   1120.73     26.04
      2590   84.7790  1.142528    771.00   1124.11     27.77
      2591   84.8080  1.142212    782.00   1127.20     27.96
      2592   84.8370  1.141895    778.00   1129.99     27.89
      2593   84.8660  1.141579    788.00   1132.66     28.07
      2594   84.8950  1.141263    752.00   1135.31     27.42
      2595   84.9240  1.140948    704.00   1137.92     26.53
      2596   84.9530  1.140632    683.00   1140.17     26.13
      2597   84.9820  1.140317    738.00   1141.46     27.17
      2598   85.0110  1.140002    711.00   1140.99     26.66
      2599   85.0410  1.139677    721.00   1137.76     26.85
      2600   85.0700  1.139362    687.00   1131.79     26.21
      2601   85.0990  1.139048    667.00   1122.64     25.83
      2602   85.1280  1.138734    608.00   1110.62     24.66
      2603   85.1570  1.138421    598.00   1096.26     24.45
      2604   85.1860  1.138107    505.00   1080.14     22.47
      2605   85.2150  1.137794    555.00   1062.94     23.56
      2606   85.2440  1.137481    567.00   1045.47     23.81
      2607   85.2730  1.137168    516.00   1028.58     22.72
      2608   85.3020  1.136856    472.00   1013.06     21.73
      2609   85.3310  1.136544    504.00    999.60     22.45
      2610   85.3600  1.136232    466.00    988.65     21.59
      2611   85.3890  1.135920    470.00    980.63     21.68
      2612   85.4180  1.135609    480.00    975.72     21.91
      2613   85.4470  1.135297    482.00    973.54     21.95
      2614   85.4760  1.134986    458.00    974.12     21.40
      2615   85.5050  1.134676    455.00    976.83     21.33
      2616   85.5340  1.134365    527.00    981.11     22.96
      2617   85.5630  1.134055    483.00    986.02     21.98
      2618   85.5920  1.133745    549.00    990.70     23.43
      2619   85.6210  1.133435    459.00    994.33     21.42
      2620   85.6500  1.133126    499.00    996.33     22.34
      2621   85.6790  1.132816    468.00    996.37     21.63
      2622   85.7080  1.132507    501.00    994.31     22.38
      2623   85.7370  1.132199    466.00    990.10     21.59
      2624   85.7660  1.131890    466.00    983.72     21.59
      2625   85.7960  1.131571    442.00    974.92     21.02
      2626   85.8250  1.131263    460.00    964.92     21.45
      2627   85.8540  1.130955    451.00    954.04     21.24
      2628   85.8830  1.130647    437.00    943.11     20.90
      2629   85.9130  1.130329    478.00    932.91     21.86
      2630   85.9420  1.130022    486.00    924.06     22.05
      2631   85.9710  1.129716    451.00    916.97     21.24
      2632   86.0000  1.129409    492.00    911.70     22.18
      2633   86.0290  1.129102    567.00    908.36     23.81
      2634   86.0580  1.128796    563.00    906.74     23.73
      2635   86.0870  1.128490    572.00    906.60     23.92
      2636   86.1160  1.128185    639.00    907.44     25.28
      2637   86.1450  1.127879    623.00    908.89     24.96
      2638   86.1740  1.127574    663.00    910.81     25.75
      2639   86.2030  1.127269    655.00    912.90     25.59
      2640   86.2320  1.126964    675.00    914.91     25.98
      2641   86.2610  1.126660    717.00    916.96     26.78
      2642   86.2900  1.126356    689.00    918.67     26.25
      2643   86.3190  1.126052    711.00    919.83     26.66
      2644   86.3480  1.125748    733.00    920.11     27.07
      2645   86.3770  1.125444    740.00    919.18     27.20
      2646   86.4060  1.125141    839.00    916.81     28.97
      2647   86.4350  1.124838    802.00    912.93     28.32
      2648   86.4640  1.124535    762.00    907.61     27.60
      2649   86.4930  1.124233    755.00    901.12     27.48
      2650   86.5220  1.123930    747.00    893.61     27.33
      2651   86.5520  1.123618    745.00    885.20     27.29
      2652   86.5810  1.123316    786.00    876.91     28.04
      2653   86.6100  1.123014    795.00    868.95     28.20
      2654   86.6390  1.122713    830.00    861.91     28.81
      2655   86.6680  1.122412    969.00    856.40     31.13
      2656   86.6970  1.122111   1048.00    852.88     32.37
      2657   86.7260  1.121810   1025.00    851.71     32.02
      2658   86.7550  1.121509   1092.00    853.07     33.05
      2659   86.7840  1.121209   1210.00    856.87     34.79
      2660   86.8130  1.120909   1158.00    862.83     34.03
      2661   86.8420  1.120609   1180.00    870.40     34.35
      2662   86.8710  1.120310   1081.00    879.12     32.88
      2663   86.9000  1.120010   1019.00    888.16     31.92
      2664   86.9290  1.119711   1006.00    897.08     31.72
      2665   86.9580  1.119412    936.00    905.04     30.59
      2666   86.9870  1.119114   1111.00    911.03     33.33
      2667   87.0160  1.118815   1077.00    914.29     32.82
      2668   87.0450  1.118517   1170.00    914.16     34.21
      2669   87.0740  1.118219   1169.00    910.50     34.19
      2670   87.1030  1.117922   1272.00    903.50     35.67
      2671   87.1320  1.117624   1275.00    894.03     35.71
      2672   87.1610  1.117327   1221.00    882.74     34.94
      2673   87.1900  1.117030   1252.00    870.29     35.38
      2674   87.2190  1.116733   1120.00    857.18     33.47
      2675   87.2490  1.116426   1101.00    843.87     33.18
      2676   87.2790  1.116120   1162.00    830.44     34.09
      2677   87.3080  1.115824   1084.00    818.37     32.92
      2678   87.3370  1.115528   1110.00    807.57     33.32
      2679   87.3660  1.115232   1204.00    798.76     34.70
      2680   87.3950  1.114937   1234.00    792.41     35.13
      2681   87.4240  1.114642   1343.00    788.82     36.65
      2682   87.4530  1.114347   1270.00    787.86     35.64
      2683   87.4820  1.114052   1323.00    789.37     36.37
      2684   87.5110  1.113757   1326.00    792.71     36.41
      2685   87.5400  1.113463   1266.00    797.48     35.58
      2686   87.5690  1.113169   1282.00    802.77     35.81
      2687   87.5980  1.112875   1281.00    807.71     35.79
      2688   87.6270  1.112582   1178.00    811.39     34.32
      2689   87.6560  1.112288   1176.00    813.01     34.29
      2690   87.6850  1.111995   1195.00    811.78     34.57
      2691   87.7140  1.111702   1230.00    807.46     35.07
      2692   87.7430  1.111410   1147.00    800.11     33.87
      2693   87.7720  1.111117   1146.00    790.34     33.85
      2694   87.8010  1.110825   1188.00    779.05     34.47
      2695   87.8300  1.110533   1173.00    767.36     34.25
      2696   87.8590  1.110241   1166.00    756.19     34.15
      2697   87.8880  1.109950   1132.00    746.32     33.65
      2698   87.9170  1.109658   1203.00    738.25     34.68
      2699   87.9460  1.109367   1092.00    732.20     33.05
      2700   87.9750  1.109076   1069.00    728.12     32.70
      2701   88.0040  1.108786   1046.00    725.77     32.34
      2702   88.0340  1.108485    985.00    724.60     31.38
      2703   88.0630  1.108195   1015.00    724.62     31.86
      2704   88.0920  1.107905    990.00    724.92     31.46
      2705   88.1210  1.107615    952.00    725.20     30.85
      2706   88.1500  1.107326    949.00    725.08     30.81
      2707   88.1790  1.107036    883.00    724.28     29.72
      2708   88.2080  1.106747    860.00    722.65     29.33
      2709   88.2370  1.106458    790.00    720.31     28.11
      2710   88.2660  1.106170    839.00    717.45     28.97
      2711   88.2950  1.105881    858.00    714.14     29.29
      2712   88.3240  1.105593    869.00    710.90     29.48
      2713   88.3530  1.105305    852.00    707.68     29.19
      2714   88.3820  1.105017    849.00    704.42     29.14
      2715   88.4110  1.104730    870.00    700.93     29.50
      2716   88.4400  1.104442    848.00    696.91     29.12
      2717   88.4690  1.104155    813.00    692.33     28.51
      2718   88.4980  1.103868    787.00    687.15     28.05
      2719   88.5270  1.103582    737.00    681.65     27.15
      2720   88.5570  1.103285    816.00    676.27     28.57
      2721   88.5860  1.102999    834.00    671.46     28.88
      2722   88.6150  1.102713    909.00    667.63     30.15
      2723   88.6440  1.102427    867.00    664.97     29.44
      2724   88.6730  1.102142    859.00    663.49     29.31
      2725   88.7020  1.101856    844.00    662.95     29.05
      2726   88.7310  1.101571    862.00    662.84     29.36
      2727   88.7600  1.101286    816.00    662.59     28.57
      2728   88.7900  1.100992    856.00    661.43     29.26
      2729   88.8190  1.100708    908.00    658.77     30.13
      2730   88.8480  1.100423    797.00    654.18     28.23
      2731   88.8770  1.100139    817.00    647.50     28.58
      2732   88.9060  1.099855    772.00    639.10     27.78
      2733   88.9350  1.099572    748.00    629.45     27.35
      2734   88.9640  1.099288    782.00    619.10     27.96
      2735   88.9930  1.099005    872.00    608.66     29.53
      2736   89.0220  1.098722    883.00    598.62     29.72
      2737   89.0510  1.098439    966.00    589.51     31.08
      2738   89.0800  1.098157    914.00    581.45     30.23
      2739   89.1090  1.097875    980.00    574.97     31.31
      2740   89.1380  1.097593   1000.00    570.10     31.62
      2741   89.1670  1.097311   1017.00    566.91     31.89
      2742   89.1960  1.097029   1005.00    565.42     31.70
      2743   89.2250  1.096748   1017.00    565.62     31.89
      2744   89.2540  1.096466   1037.00    567.44     32.20
      2745   89.2830  1.096185   1002.00    570.76     31.65
      2746   89.3120  1.095905    989.00    575.38     31.45
      2747   89.3410  1.095624    996.00    581.00     31.56
      2748   89.3700  1.095344   1024.00    587.23     32.00
      2749   89.3990  1.095063   1109.00    593.68     33.30
      2750   89.4280  1.094784   1204.00    599.84     34.70
      2751   89.4570  1.094504   1228.00    605.24     35.04
      2752   89.4860  1.094224   1181.00    609.42     34.37
      2753   89.5150  1.093945   1176.00    612.22     34.29
      2754   89.5450  1.093656   1151.00    613.38     33.93
      2755   89.5740  1.093377   1064.00    612.97     32.62
      2756   89.6030  1.093099   1090.00    611.40     33.02
      2757   89.6320  1.092820   1069.00    609.05     32.70
      2758   89.6610  1.092542   1039.00    606.49     32.23
      2759   89.6900  1.092264    983.00    604.08     31.35
      2760   89.7190  1.091986   1018.00    602.30     31.91
      2761   89.7480  1.091709    946.00    601.35     30.76
      2762   89.7770  1.091431    971.00    601.40     31.16
      2763   89.8060  1.091154   1008.00    602.65     31.75
      2764   89.8350  1.090877    982.00    605.12     31.34
      2765   89.8650  1.090591    948.00    608.57     30.79
      2766   89.8940  1.090314    931.00    612.82     30.51
      2767   89.9230  1.090038    906.00    617.31     30.10
      2768   89.9520  1.089762    911.00    621.39     30.18
      2769   89.9810  1.089486    933.00    624.37     30.55
      2770   90.0100  1.089210    960.00    625.60     30.98
      2771   90.0390  1.088935    954.00    624.70     30.89
      2772   90.0680  1.088659    960.00    621.57     30.98
      2773   90.0970  1.088384    943.00    616.47     30.71
      2774   90.1260  1.088109    953.00    609.96     30.87
      2775   90.1550  1.087835   1054.00    602.74     32.47
      2776   90.1840  1.087560    954.00    595.58     30.89
      2777   90.2130  1.087286   1028.00    589.21     32.06
      2778   90.2420  1.087012    900.00    584.19     30.00
      2779   90.2720  1.086729   1001.00    580.87     31.64
      2780   90.3010  1.086455    959.00    579.76     30.97
      2781   90.3300  1.086182   1035.00    580.75     32.17
      2782   90.3590  1.085908    966.00    583.76     31.08
      2783   90.3880  1.085636    969.00    588.34     31.13
      2784   90.4170  1.085363   1046.00    594.46     32.34
      2785   90.4460  1.085090    978.00    601.59     31.27
      2786   90.4750  1.084818    989.00    609.41     31.45
      2787   90.5040  1.084546    916.00    617.69     30.27
      2788   90.5330  1.084274    818.00    626.47     28.60
      2789   90.5620  1.084002    881.00    635.88     29.68
      2790   90.5910  1.083730    823.00    646.04     28.69
      2791   90.6200  1.083459    862.00    657.16     29.36
      2792   90.6490  1.083188    843.00    669.14     29.03
      2793   90.6780  1.082917    805.00    681.57     28.37
      2794   90.7070  1.082646    791.00    693.87     28.12
      2795   90.7360  1.082376    838.00    705.13     28.95
      2796   90.7650  1.082105    865.00    714.26     29.41
      2797   90.7940  1.081835    923.00    720.03     30.38
      2798   90.8230  1.081565    902.00    721.54     30.03
      2799   90.8520  1.081295    809.00    718.33     28.44
      2800   90.8810  1.081026    795.00    710.47     28.20
      2801   90.9100  1.080757    780.00    698.54     27.93
      2802   90.9390  1.080488    818.00    683.31     28.60
      2803   90.9680  1.080219    840.00    665.67     28.98
      2804   90.9970  1.079950    724.00    646.52     26.91
      2805   91.0270  1.079672    815.00    626.03     28.55
      2806   91.0560  1.079404    750.00    606.44     27.39
      2807   91.0850  1.079136    744.00    587.73     27.28
      2808   91.1140  1.078868    754.00    570.59     27.46
      2809   91.1430  1.078600    776.00    555.58     27.86
      2810   91.1730  1.078324    729.00    542.77     27.00
      2811   91.2020  1.078056    701.00    532.35     26.48
      2812   91.2310  1.077789    744.00    524.41     27.28
      2813   91.2600  1.077523    710.00    518.97     26.65
      2814   91.2890  1.077256    784.00    516.03     28.00
      2815   91.3180  1.076989    725.00    515.57     26.93
      2816   91.3470  1.076723    713.00    517.52     26.70
      2817   91.3760  1.076457    743.00    521.71     27.26
      2818   91.4050  1.076191    712.00    527.96     26.68
      2819   91.4340  1.075926    781.00    535.88     27.95
      2820   91.4630  1.075660    751.00    545.18     27.40
      2821   91.4920  1.075395    773.00    555.28     27.80
      2822   91.5210  1.075130    811.00    565.57     28.48
      2823   91.5500  1.074865    863.00    575.31     29.38
      2824   91.5790  1.074600    869.00    583.65     29.48
      2825   91.6080  1.074336    822.00    589.96     28.67
      2826   91.6370  1.074072    755.00    593.62     27.48
      2827   91.6660  1.073807    680.00    594.32     26.08
      2828   91.6950  1.073544    687.00    592.16     26.21
      2829   91.7240  1.073280    661.00    587.59     25.71
      2830   91.7530  1.073017    702.00    581.15     26.50
      2831   91.7830  1.072744    655.00    573.21     25.59
      2832   91.8120  1.072481    629.00    564.85     25.08
      2833   91.8410  1.072218    605.00    556.33     24.60
      2834   91.8700  1.071956    582.00    548.08     24.12
      2835   91.8990  1.071693    590.00    540.39     24.29
      2836   91.9280  1.071431    598.00    533.72     24.45
      2837   91.9570  1.071169    578.00    528.27     24.04
      2838   91.9860  1.070907    555.00    524.18     23.56
      2839   92.0150  1.070645    496.00    521.52     22.27
      2840   92.0440  1.070384    548.00    520.29     23.41
      2841   92.0730  1.070122    526.00    520.42     22.93
      2842   92.1020  1.069861    487.00    521.77     22.07
      2843   92.1310  1.069600    584.00    524.14     24.17
      2844   92.1600  1.069340    550.00    527.27     23.45
      2845   92.1890  1.069079    571.00    530.84     23.90
      2846   92.2180  1.068819    579.00    534.54     24.06
      2847   92.2470  1.068559    589.00    538.03     24.27
      2848   92.2760  1.068299    638.00    540.92     25.26
      2849   92.3050  1.068039    591.00    543.28     24.31
      2850   92.3340  1.067780    580.00    545.01     24.08
      2851   92.3630  1.067520    578.00    546.18     24.04
      2852   92.3920  1.067261    601.00    547.05     24.52
      2853   92.4210  1.067002    664.00    547.89     25.77
      2854   92.4510  1.066734    681.00    548.91     26.10
      2855   92.4800  1.066476    636.00    550.28     25.22
      2856   92.5100  1.066209    555.00    552.11     23.56
      2857   92.5390  1.065951    545.00    554.24     23.35
      2858   92.5680  1.065692    562.00    556.59     23.71
      2859   92.5970  1.065435    520.00    558.93     22.80
      2860   92.6260  1.065177    494.00    561.00     22.23
      2861   92.6550  1.064920    486.00    562.55     22.05
      2862   92.6840  1.064663    514.00    563.36     22.67
      2863   92.7130  1.064406    491.00    563.36     22.16
      2864   92.7420  1.064149    478.00    562.54     21.86
      2865   92.7710  1.063892    471.00    561.18     21.70
      2866   92.8000  1.063636    530.00    559.46     23.02
      2867   92.8290  1.063379    520.00    557.73     22.80
      2868   92.8580  1.063123    505.00    556.31     22.47
      2869   92.8870  1.062868    635.00    555.46     25.20
      2870   92.9160  1.062612    605.00    555.34     24.60
      2871   92.9450  1.062356    666.00    556.16     25.81
      2872   92.9740  1.062101    672.00    557.96     25.92
      2873   93.0030  1.061846    697.00    560.72     26.40
      2874   93.0320  1.061591    610.00    564.29     24.70
      2875   93.0610  1.061336    608.00    568.67     24.66
      2876   93.0900  1.061082    522.00    573.56     22.85
      2877   93.1190  1.060828    555.00    578.67     23.56
      2878   93.1480  1.060573    517.00    583.72     22.74
      2879   93.1770  1.060320    471.00    588.44     21.70
      2880   93.2060  1.060066    472.00    592.60     21.73
      2881   93.2350  1.059812    471.00    596.01     21.70
      2882   93.2650  1.059550    475.00    598.85     21.79
      2883   93.2940  1.059297    462.00    600.99     21.49
      2884   93.3230  1.059044    494.00    602.71     22.23
      2885   93.3520  1.058791    404.00    604.21     20.10
      2886   93.3810  1.058538    402.00    605.72     20.05
      2887   93.4100  1.058286    401.00    607.43     20.02
      2888   93.4390  1.058034    372.00    609.48     19.29
      2889   93.4680  1.057782    381.00    611.96     19.52
      2890   93.4970  1.057530    376.00    614.84     19.39
      2891   93.5260  1.057278    379.00    618.28     19.47
      2892   93.5550  1.057027    404.00    622.14     20.10
      2893   93.5840  1.056775    388.00    626.60     19.70
      2894   93.6130  1.056524    384.00    631.55     19.60
      2895   93.6420  1.056273    380.00    636.96     19.49
      2896   93.6710  1.056023    341.00    642.75     18.47
      2897   93.7010  1.055763    352.00    648.83     18.76
      2898   93.7300  1.055513    354.00    655.10     18.81
      2899   93.7590  1.055263    366.00    661.42     19.13
      2900   93.7880  1.055013    388.00    667.68     19.70
      2901   93.8170  1.054763    355.00    673.70     18.84
      2902   93.8460  1.054513    375.00    679.25     19.36
      2903   93.8750  1.054264    374.00    684.10     19.34
      2904   93.9040  1.054015    370.00    688.02     19.24
      2905   93.9330  1.053766    428.00    690.81     20.69
      2906   93.9620  1.053517    432.00    692.45     20.78
      2907   93.9910  1.053268    490.00    693.09     22.14
      2908   94.0210  1.053011    519.00    692.84     22.78
      2909   94.0500  1.052763    515.00    692.22     22.69
      2910   94.0790  1.052514    536.00    691.44     23.15
      2911   94.1080  1.052266    552.00    690.81     23.49
      2912   94.1370  1.052019    619.00    690.59     24.88
      2913   94.1660  1.051771    703.00    691.01     26.51
      2914   94.1950  1.051524    746.00    692.18     27.31
      2915   94.2240  1.051277    762.00    694.22     27.60
      2916   94.2530  1.051030    758.00    697.14     27.53
      2917   94.2820  1.050783    746.00    700.93     27.31
      2918   94.3110  1.050536    754.00    705.47     27.46
      2919   94.3400  1.050290    763.00    710.59     27.62
      2920   94.3690  1.050043    794.00    715.87     28.18
      2921   94.3980  1.049797    782.00    721.53     27.96
      2922   94.4270  1.049551    787.00    727.08     28.05
      2923   94.4560  1.049305    833.00    732.33     28.86
      2924   94.4850  1.049060    767.00    737.11     27.69
      2925   94.5140  1.048814    779.00    741.34     27.91
      2926   94.5430  1.048569    797.00    744.93     28.23
      2927   94.5720  1.048324    792.00    748.05     28.14
      2928   94.6010  1.048079    803.00    750.71     28.34
      2929   94.6300  1.047835    808.00    753.04     28.43
      2930   94.6590  1.047590    861.00    755.16     29.34
      2931   94.6880  1.047346    858.00    757.16     29.29
      2932   94.7170  1.047102    813.00    759.14     28.51
      2933   94.7470  1.046849    788.00    761.25     28.07
      2934   94.7760  1.046606    826.00    763.36     28.74
      2935   94.8050  1.046362    801.00    765.58     28.30
      2936   94.8340  1.046119    803.00    767.84     28.34
      2937   94.8630  1.045876    777.00    770.03     27.87
      2938   94.8920  1.045632    771.00    771.94     27.77
      2939   94.9210  1.045390    848.00    773.46     29.12
      2940   94.9510  1.045139    826.00    774.53     28.74
      2941   94.9800  1.044896    878.00    775.13     29.63
      2942   95.0090  1.044654    845.00    775.38     29.07
      2943   95.0380  1.044412    799.00    775.41     28.27
      2944   95.0670  1.044170    851.00    775.35     29.17
      2945   95.0960  1.043928    821.00    775.34     28.65
      2946   95.1250  1.043686    808.00    775.43     28.43
      2947   95.1540  1.043445    810.00    775.73     28.46
      2948   95.1830  1.043204    791.00    776.27     28.12
      2949   95.2120  1.042963    751.00    777.08     27.40
      2950   95.2410  1.042722    803.00    778.05     28.34
      2951   95.2700  1.042481    743.00    779.45     27.26
      2952   95.2990  1.042241    758.00    781.13     27.53
      2953   95.3280  1.042000    715.00    782.94     26.74
      2954   95.3570  1.041760    826.00    784.82     28.74
      2955   95.3860  1.041520    767.00    786.65     27.69
      2956   95.4150  1.041280    823.00    788.34     28.69
      2957   95.4440  1.041041    817.00    789.81     28.58
      2958   95.4730  1.040801    788.00    791.10     28.07
      2959   95.5030  1.040554    779.00    792.22     27.91
      2960   95.5320  1.040315    830.00    793.11     28.81
      2961   95.5610  1.040076    831.00    793.86     28.83
      2962   95.5900  1.039837    857.00    794.48     29.27
      2963   95.6190  1.039598    844.00    795.04     29.05
      2964   95.6480  1.039360    822.00    795.62     28.67
      2965   95.6770  1.039122    824.00    796.27     28.71
      2966   95.7060  1.038884    760.00    797.09     27.57
      2967   95.7350  1.038646    764.00    798.19     27.64
      2968   95.7640  1.038408    700.00    799.61     26.46
      2969   95.7930  1.038171    625.00    801.41     25.00
      2970   95.8220  1.037933    546.00    803.66     23.37
      2971   95.8510  1.037696    573.00    806.28     23.94
      2972   95.8800  1.037459    571.00    809.30     23.90
      2973   95.9090  1.037222    645.00    812.67     25.40
      2974   95.9380  1.036986    693.00    816.36     26.32
      2975   95.9670  1.036749    748.00    820.36     27.35
      2976   95.9960  1.036513    703.00    824.61     26.51
      2977   96.0250  1.036277    728.00    829.06     26.98
      2978   96.0540  1.036041    691.00    833.69     26.29
      2979   96.0830  1.035805    782.00    838.47     27.96
      2980   96.1120  1.035570    759.00    843.37     27.55
      2981   96.1410  1.035334    794.00    848.45     28.18
      2982   96.1700  1.035099    815.00    853.58     28.55
      2983   96.2000  1.034856    829.00    858.86     28.79
      2984   96.2290  1.034621    889.00    864.35     29.82
      2985   96.2590  1.034378    885.00    870.33     29.75
      2986   96.2880  1.034143    917.00    876.51     30.28
      2987   96.3170  1.033909    884.00    883.12     29.73
      2988   96.3460  1.033675    909.00    890.22     30.15
      2989   96.3750  1.033441    904.00    897.72     30.07
      2990   96.4040  1.033207    912.00    905.68     30.20
      2991   96.4330  1.032973    919.00    913.89     30.32
      2992   96.4620  1.032740    876.00    922.19     29.60
      2993   96.4910  1.032506    936.00    930.35     30.59
      2994   96.5200  1.032273    957.00    938.09     30.94
      2995   96.5490  1.032040    939.00    945.15     30.64
      2996   96.5780  1.031807    883.00    951.26     29.72
      2997   96.6070  1.031575    862.00    956.25     29.36
      2998   96.6360  1.031342    854.00    960.03     29.22
      2999   96.6650  1.031110    823.00    962.64     28.69
      3000   96.6940  1.030878    879.00    964.27     29.65
      3001   96.7230  1.030646    863.00    965.15     29.38
      3002   96.7520  1.030414    852.00    965.62     29.19
      3003   96.7810  1.030182    903.00    966.01     30.05
      3004   96.8100  1.029951    882.00    966.60     29.70
      3005   96.8390  1.029720    911.00    967.64     30.18
      3006   96.8680  1.029489    945.00    969.19     30.74
      3007   96.8970  1.029258    956.00    971.43     30.92
      3008   96.9260  1.029027    978.00    974.34     31.27
      3009   96.9550  1.028796    863.00    977.79     29.38
      3010   96.9840  1.028566    901.00    981.63     30.02
      3011   97.0140  1.028328    910.00    985.85     30.17
      3012   97.0430  1.028098    944.00    989.92     30.72
      3013   97.0720  1.027868    915.00    993.76     30.25
      3014   97.1010  1.027638    930.00    997.21     30.50
      3015   97.1300  1.027408    962.00   1000.14     31.02
      3016   97.1590  1.027179    956.00   1002.59     30.92
      3017   97.1880  1.026949   1006.00   1004.70     31.72
      3018   97.2170  1.026720   1049.00   1006.57     32.39
      3019   97.2460  1.026491   1006.00   1008.48     31.72
      3020   97.2750  1.026263    990.00   1010.57     31.46
      3021   97.3040  1.026034   1036.00   1013.00     32.19
      3022   97.3330  1.025806   1009.00   1015.85     31.76
      3023   97.3620  1.025577   1046.00   1019.17     32.34
      3024   97.3910  1.025349   1083.00   1022.96     32.91
      3025   97.4210  1.025114   1092.00   1027.11     33.05
      3026   97.4500  1.024886   1141.00   1031.56     33.78
      3027   97.4790  1.024658   1123.00   1036.19     33.51
      3028   97.5080  1.024431   1162.00   1040.86     34.09
      3029   97.5370  1.024204   1128.00   1045.41     33.59
      3030   97.5660  1.023976   1174.00   1049.75     34.26
      3031   97.5950  1.023750   1145.00   1053.79     33.84
      3032   97.6240  1.023523   1178.00   1057.42     34.32
      3033   97.6530  1.023296   1187.00   1060.47     34.45
      3034   97.6820  1.023070   1238.00   1063.07     35.19
      3035   97.7110  1.022844   1122.00   1065.10     33.50
      3036   97.7410  1.022610   1139.00   1066.61     33.75
      3037   97.7700  1.022384   1111.00   1067.58     33.33
      3038   97.7990  1.022158   1128.00   1068.18     33.59
      3039   97.8280  1.021932   1177.00   1068.54     34.31
      3040   97.8570  1.021707   1186.00   1068.81     34.44
      3041   97.8860  1.021482   1187.00   1069.12     34.45
      3042   97.9150  1.021257   1174.00   1069.60     34.26
      3043   97.9440  1.021032   1187.00   1070.40     34.45
      3044   97.9730  1.020807   1235.00   1071.60     35.14
      3045   98.0020  1.020582   1163.00   1073.30     34.10
      3046   98.0310  1.020358   1129.00   1075.52     33.60
      3047   98.0600  1.020134   1176.00   1078.28     34.29
      3048   98.0890  1.019910   1175.00   1081.55     34.28
      3049   98.1180  1.019686   1112.00   1085.26     33.35
      3050   98.1470  1.019462   1087.00   1089.30     32.97
      3051   98.1760  1.019238   1101.00   1093.62     33.18
      3052   98.2050  1.019015   1106.00   1098.06     33.26
      3053   98.2340  1.018792   1180.00   1102.51     34.35
      3054   98.2630  1.018569   1145.00   1106.82     33.84
      3055   98.2920  1.018345   1148.00   1110.80     33.88
      3056   98.3210  1.018123   1165.00   1114.41     34.13
      3057   98.3500  1.017900   1152.00   1117.52     33.94
      3058   98.3790  1.017678   1156.00   1120.09     34.00
      3059   98.4080  1.017455   1237.00   1122.14     35.17
      3060   98.4370  1.017233   1171.00   1123.75     34.22
      3061   98.4660  1.017011   1198.00   1124.97     34.61
      3062   98.4960  1.016782   1147.00   1126.04     33.87
      3063   98.5250  1.016560   1267.00   1126.98     35.59
      3064   98.5540  1.016338   1241.00   1127.86     35.23
      3065   98.5830  1.016117   1201.00   1128.82     34.66
      3066   98.6120  1.015896   1226.00   1129.92     35.01
      3067   98.6420  1.015667   1258.00   1131.23     35.47
      3068   98.6710  1.015447   1178.00   1132.80     34.32
      3069   98.7000  1.015226   1185.00   1134.68     34.42
      3070   98.7290  1.015005   1161.00   1136.82     34.07
      3071   98.7580  1.014785   1165.00   1139.30     34.13
      3072   98.7870  1.014565   1075.00   1142.00     32.79
      3073   98.8160  1.014345   1090.00   1144.87     33.02
      3074   98.8450  1.014125   1084.00   1147.83     32.92
      3075   98.8740  1.013905   1094.00   1150.75     33.08
      3076   98.9030  1.013686   1054.00   1153.57     32.47
      3077   98.9320  1.013466   1148.00   1156.27     33.88
      3078   98.9610  1.013247   1134.00   1158.80     33.67
      3079   98.9900  1.013028   1127.00   1161.19     33.57
      3080   99.0190  1.012809   1090.00   1163.48     33.02
      3081   99.0480  1.012590   1177.00   1165.70     34.31
      3082   99.0770  1.012372   1117.00   1167.90     33.42
      3083   99.1060  1.012153   1123.00   1170.07     33.51
      3084   99.1350  1.011935   1156.00   1172.21     34.00
      3085   99.1640  1.011717   1074.00   1174.27     32.77
      3086   99.1930  1.011499   1157.00   1176.20     34.01
      3087   99.2220  1.011281   1164.00   1178.05     34.12
      3088   99.2520  1.011056   1159.00   1179.68     34.04
      3089   99.2810  1.010838   1187.00   1181.01     34.45
      3090   99.3100  1.010621   1191.00   1182.06     34.51
      3091   99.3390  1.010404   1270.00   1182.82     35.64
      3092   99.3680  1.010187   1270.00   1183.31     35.64
      3093   99.3970  1.009970   1252.00   1183.60     35.38
      3094   99.4260  1.009753   1201.00   1183.83     34.66
      3095   99.4550  1.009537   1194.00   1184.13     34.55
      3096   99.4840  1.009320   1242.00   1184.70     35.24
      3097   99.5130  1.009104   1163.00   1185.66     34.10
      3098   99.5420  1.008888   1177.00   1187.14     34.31
      3099   99.5710  1.008672   1155.00   1189.21     33.99
      3100   99.6000  1.008456   1186.00   1191.88     34.44
      3101   99.6290  1.008241   1263.00   1195.14     35.54
      3102   99.6580  1.008025   1226.00   1198.94     35.01
      3103   99.6870  1.007810   1247.00   1203.15     35.31
      3104   99.7160  1.007595   1252.00   1207.65     35.38
      3105   99.7450  1.007380   1216.00   1212.28     34.87
      3106   99.7740  1.007165   1176.00   1216.89     34.29
      3107   99.8030  1.006950   1256.00   1221.31     35.44
      3108   99.8330  1.006729   1302.00   1225.44     36.08
      3109   99.8620  1.006514   1332.00   1229.17     36.50
      3110   99.8910  1.006300   1287.00   1232.50     35.87
      3111   99.9200  1.006086   1351.00   1235.28     36.76
      3112   99.9490  1.005872   1248.00   1237.58     35.33
      3113   99.9790  1.005651   1300.00   1239.50     36.06
      3114  100.0080  1.005438   1309.00   1240.98     36.18
      3115  100.0370  1.005224   1217.00   1242.13     34.89
      3116  100.0660  1.005011   1280.00   1243.01     35.78
      3117  100.0950  1.004798   1238.00   1243.62     35.19
      3118  100.1240  1.004585   1208.00   1243.91     34.76
      3119  100.1530  1.004372   1194.00   1243.82     34.55
      3120  100.1820  1.004160   1216.00   1243.23     34.87
      3121  100.2110  1.003947   1213.00   1242.02     34.83
      3122  100.2400  1.003735   1299.00   1240.09     36.04
      3123  100.2690  1.003523   1281.00   1237.39     35.79
      3124  100.2980  1.003311   1132.00   1233.94     33.65
      3125  100.3270  1.003099   1250.00   1229.86     35.36
      3126  100.3560  1.002887   1157.00   1225.33     34.01
      3127  100.3850  1.002675   1265.00   1220.56     35.57
      3128  100.4140  1.002464   1199.00   1215.80     34.63
      3129  100.4430  1.002253   1244.00   1211.27     35.27
      3130  100.4720  1.002042   1275.00   1207.18     35.71
      3131  100.5010  1.001831   1321.00   1203.70     36.35
      3132  100.5300  1.001620   1269.00   1200.94     35.62
      3133  100.5590  1.001409   1290.00   1199.04     35.92
      3134  100.5880  1.001199   1251.00   1198.11     35.37
      3135  100.6170  1.000989   1229.00   1198.14     35.06
      3136  100.6460  1.000778   1256.00   1199.15     35.44
      3137  100.6750  1.000568   1222.00   1201.09     34.96
      3138  100.7040  1.000358   1264.00   1203.90     35.55
      3139  100.7340  1.000142   1260.00   1207.61     35.50
      3140  100.7630  0.999932   1191.00   1211.83     34.51
      3141  100.7920  0.999723   1280.00   1216.53     35.78
      3142  100.8210  0.999513   1281.00   1221.53     35.79
      3143  100.8500  0.999304   1318.00   1226.67     36.30
      3144  100.8790  0.999095   1278.00   1231.80     35.75
      3145  100.9080  0.998887   1231.00   1236.79     35.09
      3146  100.9370  0.998678   1280.00   1241.48     35.78
      3147  100.9660  0.998469   1273.00   1245.75     35.68
      3148  100.9950  0.998261   1200.00   1249.52     34.64
      3149  101.0250  0.998046   1248.00   1252.62     35.33
      3150  101.0540  0.997838   1252.00   1255.02     35.38
      3151  101.0830  0.997630   1205.00   1256.65     34.71
      3152  101.1120  0.997422   1329.00   1257.47     36.46
      3153  101.1410  0.997214   1259.00   1257.48     35.48
      3154  101.1700  0.997007   1267.00   1256.73     35.59
      3155  101.1990  0.996800   1187.00   1255.27     34.45
      3156  101.2280  0.996593   1216.00   1253.17     34.87
      3157  101.2570  0.996385   1164.00   1250.48     34.12
      3158  101.2860  0.996179   1176.00   1247.28     34.29
      3159  101.3150  0.995972   1223.00   1243.58     34.97
      3160  101.3440  0.995765   1076.00   1239.48     32.80
      3161  101.3730  0.995559   1075.00   1235.04     32.79
      3162  101.4020  0.995353   1138.00   1230.37     33.73
      3163  101.4310  0.995147   1150.00   1225.59     33.91
      3164  101.4600  0.994941   1063.00   1220.80     32.60
      3165  101.4900  0.994728   1171.00   1215.98     34.22
      3166  101.5190  0.994522   1174.00   1211.54     34.26
      3167  101.5480  0.994317   1156.00   1207.37     34.00
      3168  101.5770  0.994111   1103.00   1203.53     33.21
      3169  101.6060  0.993906   1167.00   1200.07     34.16
      3170  101.6350  0.993701   1191.00   1196.89     34.51
      3171  101.6640  0.993496   1263.00   1194.03     35.54
      3172  101.6930  0.993291   1257.00   1191.40     35.45
      3173  101.7220  0.993087   1307.00   1188.95     36.15
      3174  101.7510  0.992882   1231.00   1186.61     35.09
      3175  101.7800  0.992678   1244.00   1184.32     35.27
      3176  101.8090  0.992474   1276.00   1182.06     35.72
      3177  101.8380  0.992270   1255.00   1179.76     35.43
      3178  101.8670  0.992066   1258.00   1177.45     35.47
      3179  101.8960  0.991862   1293.00   1175.07     35.96
      3180  101.9250  0.991659   1289.00   1172.63     35.90
      3181  101.9540  0.991455   1230.00   1170.10     35.07
      3182  101.9830  0.991252   1213.00   1167.48     34.83
      3183  102.0120  0.991049   1248.00   1164.78     35.33
      3184  102.0410  0.990846   1237.00   1162.01     35.17
      3185  102.0700  0.990643   1282.00   1159.19     35.81
      3186  102.0990  0.990440   1208.00   1156.35     34.76
      3187  102.1280  0.990238   1251.00   1153.53     35.37
      3188  102.1570  0.990036   1276.00   1150.83     35.72
      3189  102.1860  0.989833   1272.00   1148.30     35.67
      3190  102.2160  0.989624   1304.00   1145.99     36.11
      3191  102.2460  0.989415   1302.00   1143.92     36.08
      3192  102.2750  0.989214   1350.00   1142.27     36.74
      3193  102.3040  0.989012   1358.00   1141.04     36.85
      3194  102.3330  0.988810   1278.00   1140.27     35.75
      3195  102.3620  0.988609   1317.00   1139.99     36.29
      3196  102.3910  0.988408   1337.00   1140.20     36.56
      3197  102.4200  0.988207   1264.00   1140.98     35.55
      3198  102.4490  0.988006   1178.00   1142.32     34.32
      3199  102.4780  0.987805   1216.00   1144.21     34.87
      3200  102.5070  0.987604   1196.00   1146.64     34.58
      3201  102.5360  0.987404   1180.00   1149.57     34.35
      3202  102.5650  0.987203   1171.00   1152.94     34.22
      3203  102.5940  0.987003   1185.00   1156.66     34.42
      3204  102.6230  0.986803   1221.00   1160.76     34.94
      3205  102.6520  0.986603   1270.00   1164.97     35.64
      3206  102.6810  0.986403   1172.00   1169.23     34.23
      3207  102.7100  0.986204   1161.00   1173.43     34.07
      3208  102.7390  0.986004   1165.00   1177.42     34.13
      3209  102.7680  0.985805   1160.00   1181.09     34.06
      3210  102.7970  0.985606   1142.00   1184.36     33.79
      3211  102.8260  0.985407   1159.00   1187.20     34.04
      3212  102.8550  0.985208   1200.00   1189.62     34.64
      3213  102.8840  0.985009   1238.00   1191.68     35.19
      3214  102.9130  0.984810   1257.00   1193.43     35.45
      3215  102.9420  0.984612   1288.00   1194.92     35.89
      3216  102.9720  0.984407   1254.00   1196.31     35.41
      3217  103.0010  0.984209   1220.00   1197.54     34.93
      3218  103.0300  0.984011   1195.00   1198.66     34.57
      3219  103.0590  0.983813   1130.00   1199.70     33.62
      3220  103.0880  0.983615   1098.00   1200.65     33.14
      3221  103.1170  0.983417   1078.00   1201.49     32.83
      3222  103.1460  0.983220   1072.00   1202.20     32.74
      3223  103.1750  0.983022   1161.00   1202.78     34.07
      3224  103.2040  0.982825   1115.00   1203.21     33.39
      3225  103.2330  0.982628   1081.00   1203.48     32.88
      3226  103.2620  0.982431   1071.00   1203.59     32.73
      3227  103.2910  0.982235   1029.00   1203.59     32.08
      3228  103.3200  0.982038   1046.00   1203.50     32.34
      3229  103.3490  0.981841   1024.00   1203.36     32.00
      3230  103.3790  0.981638   1052.00   1203.18     32.43
      3231  103.4080  0.981442   1075.00   1202.98     32.79
      3232  103.4370  0.981246   1096.00   1202.69     33.11
      3233  103.4660  0.981050   1096.00   1202.36     33.11
      3234  103.4950  0.980854   1221.00   1201.90     34.94
      3235  103.5240  0.980659   1212.00   1201.24     34.81
      3236  103.5530  0.980463   1126.00   1200.32     33.56
      3237  103.5820  0.980268   1140.00   1199.13     33.76
      3238  103.6110  0.980073   1125.00   1197.68     33.54
      3239  103.6400  0.979878   1177.00   1196.05     34.31
      3240  103.6690  0.979683   1132.00   1194.34     33.65
      3241  103.6980  0.979488   1195.00   1192.69     34.57
      3242  103.7280  0.979287   1172.00   1191.19     34.23
      3243  103.7570  0.979092   1258.00   1190.09     35.47
      3244  103.7860  0.978898   1134.00   1189.44     33.67
      3245  103.8150  0.978703   1168.00   1189.36     34.18
      3246  103.8440  0.978509   1220.00   1189.91     34.93
      3247  103.8730  0.978315   1263.00   1191.18     35.54
      3248  103.9020  0.978122   1201.00   1193.20     34.66
      3249  103.9310  0.977928   1220.00   1195.94     34.93
      3250  103.9600  0.977734   1256.00   1199.43     35.44
      3251  103.9890  0.977541   1243.00   1203.62     35.26
      3252  104.0180  0.977348   1226.00   1208.40     35.01
      3253  104.0470  0.977155   1218.00   1213.77     34.90
      3254  104.0760  0.976962   1203.00   1219.57     34.68
      3255  104.1050  0.976769   1238.00   1225.66     35.19
      3256  104.1340  0.976576   1349.00   1231.87     36.73
      3257  104.1630  0.976384   1215.00   1238.02     34.86
      3258  104.1920  0.976191   1224.00   1243.94     34.99
      3259  104.2210  0.975999   1294.00   1249.44     35.97
      3260  104.2500  0.975807   1264.00   1254.41     35.55
      3261  104.2790  0.975615   1370.00   1258.67     37.01
      3262  104.3080  0.975423   1311.00   1262.22     36.21
      3263  104.3370  0.975231   1207.00   1265.07     34.74
      3264  104.3660  0.975040   1247.00   1267.36     35.31
      3265  104.3950  0.974848   1265.00   1269.15     35.57
      3266  104.4240  0.974657   1233.00   1270.76     35.11

# 12. STRUCTURE-FACTOR LIST

loop_
 _refln_index_h
 _refln_index_k
 _refln_index_l
 _refln_F_squared_calc
 _refln_F_squared_meas
 _refln_F_squared_sigma
 _refln_observed_status
 _refln_d_spacing
   1   1   0      243.46      214.12        4.79 o  8.544653
   0   2   0      397.59      552.52       13.13 o  7.457116
   1   2   0     1168.92      895.31       18.69 o  6.065211
   2   0   0     2430.94     2816.31       58.91 o  5.212622
   2   1   0      134.72      126.73        4.68 o  4.920733
   0   1   1     3091.73     2548.07       52.14 o  4.749622
   1   0   1      565.89      552.03       12.27 o  4.515995
   1   3   0      248.67      224.43        5.02 o  4.487319
   1   1   1    10234.33    10239.09      205.55 o  4.322196
   1  -1   1    10234.33    10239.09      205.30 o  4.322196
   2   2   0      658.07      566.90       11.48 o  4.272326
   0   2   1        2.20        1.21        0.07 o  4.158894
   1   2   1      477.68      416.16        9.94 o  3.862865
   1  -2   1      477.68      416.16        9.95 o  3.862865
   0   4   0      593.71      622.87       24.45 o  3.728558
   2   0   1      823.04      863.04       20.04 o  3.612297
   2   3   0      363.13      369.60        8.65 o  3.597570
   0   3   1      351.57      362.94        7.70 o  3.529054
   1   4   0      167.95      178.29        3.75 o  3.510778
   2   1   1     1239.47     1315.76       27.62 o  3.510788
   2  -1   1     1239.47     1315.76       27.67 o  3.510788
   3   1   0      543.84      368.98       12.72 o  3.384424
   1  -3   1      464.20      514.18       13.23 o  3.342726
   1   3   1      464.20      514.18       13.23 o  3.342726
   2  -2   1      150.83      195.53        8.95 o  3.250956
   2   2   1      150.83      195.53        8.92 o  3.250956
   3   2   0     5903.66     6451.00      132.77 o  3.149854
   2   4   0      273.87      121.05       13.42 o  3.032605
   0   4   1      745.05      457.95       17.93 o  2.991224
   2  -3   1      444.42      687.21       19.17 o  2.922310
   2   3   1      444.42      687.21       19.11 o  2.922310
   1   4   1       82.18       91.53        2.56 o  2.875215
   1  -4   1       82.18       91.53        2.55 o  2.875215
   1   5   0      958.50      951.29       26.95 o  2.867773
   3   0   1       47.77       40.96        1.25 o  2.855509
   3   3   0      158.51       90.48        3.98 o  2.848217
   3  -1   1      253.46       94.71        7.68 o  2.804567
   3   1   1      253.46       94.71        7.72 o  2.804567
   3  -2   1      349.84      894.41       28.74 o  2.666685
   3   2   1      349.84      894.41       28.74 o  2.666685
   4   0   0     1392.09     2452.97       55.22 o  2.606311
   2   4   1     1099.94     1753.71       38.61 o  2.594408
   2  -4   1     1099.94     1753.71       38.58 o  2.594408
   2   5   0        9.00       14.02        0.31 o  2.588936
   4   1   0      332.26      453.56        9.83 o  2.567403
   0   5   1     2738.72     3703.60       80.17 o  2.563046
   3   4   0     1100.70     1309.73       31.68 o  2.542145
   0   0   2     6585.67    10346.36      216.42 o  2.505245
   1   5   1     2193.71     3093.81       63.91 o  2.488931
   1  -5   1     2193.71     3093.82       63.91 o  2.488931
   0   6   0       78.17      103.88        2.14 o  2.485706
   3   3   1      848.20     1050.95       21.64 o  2.476115
   3  -3   1      848.20     1050.95       21.63 o  2.476115
   0   1   2     2897.30     3485.29       72.09 o  2.470632
   4   2   0     2064.15     2619.52       55.13 o  2.460367
   1   0   2     1476.85     1487.77       37.15 o  2.435899
   1   6   0      416.32      429.60       12.15 o  2.417927
   1   1   2      511.28      462.04       13.64 o  2.404046
   1  -1   2      511.28      462.04       13.61 o  2.404046
   0   2   2      421.50      719.36       33.77 o  2.374811
   1   2   2       33.86       43.27        1.01 o  2.315495
   1  -2   2       33.86       43.27        0.99 o  2.315495
   4   0   1      491.10      628.40       14.22 o  2.312201
   4   3   0     1619.44     2022.77       45.20 o  2.308325
   2  -5   1      572.25      573.95       12.83 o  2.300044
   2   5   1      572.25      573.95       12.82 o  2.300044
   4   1   1     1737.31     1469.71       32.44 o  2.284905
   4  -1   1     1737.31     1469.71       32.46 o  2.284905
   3  -4   1     1778.31     1970.69       42.28 o  2.267046
   3   4   1     1778.31     1970.69       42.20 o  2.267046
   3   5   0      440.60      471.05       10.14 o  2.263392
   2   0   2      733.68      796.66       17.43 o  2.257998
   2   6   0      976.40      646.35       16.99 o  2.243659
   0   3   2        0.12        0.09        0.00 o  2.237231
   2  -1   2      455.76      366.74        8.44 o  2.232556
   2   1   2      455.76      366.74        8.46 o  2.232556
   0   6   1     2435.59     1939.77       45.37 o  2.226745
   4  -2   1      233.16      123.40        7.93 o  2.208474
   4   2   1      233.16      123.40        7.90 o  2.208474
   1  -3   2       25.31        9.52        0.83 o  2.187430
   1   3   2       25.31        9.52        0.84 o  2.187430
   1   6   1      411.55      222.84       12.48 o  2.177626
   1  -6   1      411.55      222.84       12.47 o  2.177626
   2  -2   2      127.28      103.96        9.32 o  2.161098
   2   2   2      127.28      103.96        9.36 o  2.161098
   4   4   0      240.23       42.10       37.24 <  2.136163
   4  -3   1      105.80       60.56        3.65 o  2.096535
   4   3   1      105.80       60.56        3.70 o  2.096535
   1   7   0      718.32      497.53       23.18 o  2.087457
   0   4   2       40.51       20.13        1.06 o  2.079447
   5   1   0     1795.79      706.96       24.50 o  2.064967
   3  -5   1      258.22      106.08        3.56 o  2.062698
   3   5   1      258.22      106.08        3.59 o  2.062698
   2  -3   2      369.24      224.62        6.18 o  2.055875
   2   3   2      369.24      224.62        6.21 o  2.055875
   2  -6   1      501.90      455.19       11.73 o  2.047729
   2   6   1      501.91      455.19       11.71 o  2.047729
   1  -4   2      677.79      544.76       14.64 o  2.039276
   1   4   2      677.79      544.76       14.65 o  2.039276
   3   0   2      273.76      234.26        6.93 o  2.032208
   3   6   0        6.71        1.65        0.25 o  2.021737
   3   1   2      269.95       21.36        7.27 <  2.013602
   3  -1   2      269.95       21.36        7.26 <  2.013602
   5   2   0      625.16       74.39       16.98 o  2.008033
   2   7   0      567.61      446.29       17.12 o  1.972217
   4   4   1       48.46       30.06        0.97 o  1.965029
   4  -4   1       48.46       30.06        0.95 o  1.965029
   4   5   0      572.69      370.19       11.60 o  1.962648
   3  -2   2      432.30      288.71        8.96 o  1.960705
   0   7   1      502.09      335.32       10.40 o  1.960700
   3   2   2      432.30      288.71        8.95 o  1.960705
   2  -4   2       98.38       41.36        1.54 o  1.931433
   2   4   2       98.38       41.36        1.56 o  1.931433
   1  -7   1      835.38      413.16       13.66 o  1.926917
   1   7   1      835.37      413.16       13.67 o  1.926917
   5   0   1       60.90       30.82        1.01 o  1.925022
   5   3   0      937.48      498.67       16.07 o  1.922784
   0   5   2        4.04        3.46        0.10 o  1.918388
   5  -1   1      568.97      506.83       19.51 o  1.909185
   5   1   1      568.97      506.83       19.50 o  1.909185
   1  -5   2      197.16       55.40        4.99 o  1.886711
   1   5   2      197.16       55.40        5.00 o  1.886711
   3   3   2      358.43      163.01        8.34 o  1.881110
   3  -3   2      358.43      163.01        8.34 o  1.881110
   3  -6   1      357.35      228.44        9.87 o  1.874864
   3   6   1      357.35      228.44        9.84 o  1.874864
   0   8   0      248.68      224.59       10.25 o  1.864279
   5   2   1      378.22      341.57       15.59 o  1.863919
   5  -2   1      378.22      341.57       15.57 o  1.863919
   1   8   0       66.59       19.94        4.49 o  1.835168
   2   7   1      206.68       61.90       14.03 o  1.835169
   2  -7   1      206.68       61.90       13.86 o  1.835169
   4   5   1       73.29       32.18        4.11 o  1.827452
   4  -5   1       73.29       32.18        4.08 o  1.827452
   5   4   0       42.05       24.24        1.78 o  1.819830
   3   7   0      566.95      338.98       24.23 o  1.816389
   4   0   2        2.62        0.90        0.04 o  1.806149
   2   5   2      802.53      358.82       11.58 o  1.800336
   2  -5   2      802.53      358.82       11.61 o  1.800336
   4   6   0     1071.74      482.00       15.54 o  1.798785
   5  -3   1      268.37      128.51        4.09 o  1.795141
   5   3   1      268.37      128.51        4.11 o  1.795141
   4  -1   2      143.17       75.49        2.42 o  1.793048
   4   1   2      143.17       75.49        2.42 o  1.793048
   3  -4   2       83.31      229.56       11.34 o  1.784379
   3   4   2       83.31      229.56       11.40 o  1.784379
   0   6   2     1281.61      690.34       35.60 o  1.764527
   2   8   0       59.57       53.58        2.99 o  1.755389
   4   2   2        8.10        7.28        0.40 o  1.755394
   4  -2   2        8.10        7.28        0.41 o  1.755394
   0   8   1      370.42      797.36       43.19 o  1.747253
   1   6   2      162.78      349.95       19.18 o  1.739783
   1  -6   2      162.78      349.95       19.19 o  1.739783
   6   0   0       66.64      141.86        8.45 o  1.737541
   6   1   0      399.92      285.50       17.18 o  1.725868
   1   8   1      221.04      157.47        9.48 o  1.723219
   1  -8   1      221.04      157.47        9.53 o  1.723219
   5   4   1       13.11        9.14        0.41 o  1.710501
   5  -4   1       13.11        9.14        0.41 o  1.710501
   5   5   0      362.12      253.65       11.32 o  1.708930
   3  -7   1      428.99      303.70       13.44 o  1.707644
   3   7   1      428.99      303.70       13.41 o  1.707644
   4  -3   2      179.64      136.15        6.48 o  1.697586
   4   3   2      179.64      136.15        6.48 o  1.697586
   4  -6   1      136.19      100.23        4.93 o  1.692991
   4   6   1      136.19      100.23        4.92 o  1.692991
   6   2   0      493.43      361.47       17.86 o  1.692212
   3  -5   2      614.12      530.45       18.49 o  1.679472
   3   5   2      614.12      530.45       18.50 o  1.679472
   2   6   2      519.80      559.43       18.94 o  1.671363
   2  -6   2      519.79      559.42       18.88 o  1.671363
   0   1   3        1.35        2.04        0.10 o  1.659789
   2  -8   1      329.66      493.84       24.07 o  1.656662
   2   8   1      329.66      493.84       23.99 o  1.656662
   4   7   0       17.38       12.40        0.66 o  1.649565
   1   0   3        8.29        5.67        0.32 o  1.649135
   3   8   0      227.62      134.31        4.69 o  1.642807
   6   0   1      247.98      157.55        5.18 o  1.641633
   6   3   0      159.24      107.40        3.37 o  1.640244
   1  -1   3      658.80      456.72       14.04 o  1.639145
   1   1   3      658.80      456.72       14.03 o  1.639145
   1   9   0      272.87      202.10        5.97 o  1.636590
   6   1   1      540.60      674.75       17.94 o  1.631778
   6  -1   1      540.60      674.75       17.91 o  1.631778
   0   2   3       70.21      107.79        2.79 o  1.629787
   4  -4   2      129.95      200.84        5.35 o  1.625478
   4   4   2      129.95      200.84        5.39 o  1.625478
   0   7   2     1276.90     1958.38       54.81 o  1.623025
   5   5   1       41.61       66.39        2.13 o  1.617440
   5  -5   1       41.61       66.39        2.14 o  1.617440
   1  -2   3      304.11      374.08       10.55 o  1.610229
   1   2   3      304.11      374.08       10.53 o  1.610229
   1   7   2      443.71      559.24       14.36 o  1.603707
   1  -7   2      443.71      559.24       14.40 o  1.603707
   6  -2   1      777.17      979.52       25.22 o  1.603244
   6   2   1      777.17      979.52       25.14 o  1.603244
   5   0   2       68.32       85.94        2.22 o  1.602614
   5   6   0        4.11        5.01        0.13 o  1.597463
   5   1   2      100.95      130.71        3.69 o  1.593441
   5  -1   2      100.95      130.71        3.71 o  1.593441
   2   0   3     1669.64     2192.27       61.27 o  1.590516
   0   3   3      372.04      681.20       18.70 o  1.583207
   2  -1   3      400.49      836.01       22.98 o  1.581548
   2   1   3      400.49      836.01       22.92 o  1.581548
   2   9   0        0.70        1.23        0.03 o  1.579253
   6   4   0       22.84       36.09        0.94 o  1.574927
   3   6   2      335.76      512.24       13.24 o  1.573323
   3  -6   2      335.76      512.24       13.23 o  1.573323
   0   9   1      713.13     1079.96       28.12 o  1.573321
   5  -2   2      438.16      577.86       15.17 o  1.566839
   5   2   2      438.16      577.86       15.20 o  1.566839
   4   7   1      133.27      175.76        4.61 o  1.566836
   4  -7   1      133.27      175.76        4.63 o  1.566836
   1   3   3      305.92      407.43       10.94 o  1.565261
   1  -3   3      305.92      407.43       10.94 o  1.565261
   3  -8   1       46.88       61.91        1.79 o  1.561042
   3   8   1       46.88       61.91        1.79 o  1.561042
   6  -3   1      117.48      160.49        4.96 o  1.558843
   6   3   1      117.48      160.49        4.96 o  1.558843
   1  -9   1      225.17      388.31       13.14 o  1.555705
   1   9   1      225.17      388.31       13.13 o  1.555705
   2  -2   3       86.64      149.41        5.05 o  1.555527
   2   2   3       86.64      149.41        5.06 o  1.555527
   2   7   2      202.37      263.08        9.73 o  1.549645
   2  -7   2      202.37      263.08        9.70 o  1.549645
   4  -5   2      212.68      243.48       11.22 o  1.544990
   4   5   2      212.68      243.48       11.18 o  1.544990
   5   3   2      256.88       71.04        8.78 o  1.525317
   5  -3   2      256.88       71.04        8.85 o  1.525317
   0   4   3      263.03       80.34        8.92 o  1.524232
   5  -6   1       22.20        7.82        0.73 o  1.521981
   5   6   1       22.20        7.82        0.74 o  1.521981
   4   8   0      328.02      229.26       15.92 o  1.516303
   2  -3   3       12.65        7.96        0.60 o  1.514875
   2   3   3       12.65        7.96        0.60 o  1.514875
   1   4   3      130.77       41.53        2.85 o  1.508197
   1  -4   3      130.77       41.53        2.85 o  1.508197
   2   9   1      119.30       40.28        2.49 o  1.506208
   2  -9   1      119.30       40.28        2.50 o  1.506208
   3   0   3      277.99       96.08        5.83 o  1.505332
   6   4   1      447.21      161.98        9.58 o  1.502453
   6  -4   1      447.21      161.98        9.62 o  1.502453
   6   5   0       51.24       18.91        1.13 o  1.501388
   3   1   3       19.90        9.26        0.60 o  1.497722
   3  -1   3       19.90        9.26        0.59 o  1.497722
   3   9   0       39.89       25.97        1.78 o  1.495773
   0   8   2       12.03        7.83        0.54 o  1.495612
   0  10   0        2.33        5.84        0.61 o  1.491423
   5   7   0       31.21       63.58        5.97 o  1.490198
   7   1   0      523.32      253.48       19.53 o  1.481950
   1  -8   2      137.02       71.83        5.01 o  1.480455
   1   8   2      137.02       71.83        5.02 o  1.480455
   1  10   0       11.60        5.88        0.42 o  1.476392
   3  -2   3       69.53       34.46        2.53 o  1.475568
   3   2   3       69.53       34.46        2.53 o  1.475568
   5  -4   2      127.53       72.07        5.72 o  1.472368
   5   4   2      127.53       72.07        5.76 o  1.472368
   3  -7   2       66.42       26.92        2.57 o  1.470544
   3   7   2       66.42       26.92        2.56 o  1.470544
   2  -4   3      550.15      137.24       13.01 o  1.462969
   2   4   3      550.15      137.24       13.03 o  1.462969
   4  -6   2       74.08       19.33        1.78 o  1.461155
   4   6   2       74.08       19.33        1.77 o  1.461155
   7   2   0       67.86       18.08        1.64 o  1.460478
   0   5   3        2.03        0.64        0.06 o  1.457276
   4   8   1      161.28       54.79        9.12 o  1.451302
   4  -8   1      161.28       54.79        9.13 o  1.451302
   1   5   3      452.84      153.99       14.11 o  1.443244
   1  -5   3      452.84      153.99       14.04 o  1.443244
   3  -3   3       63.50       21.27        2.04 o  1.440732
   3   3   3       63.50       21.27        2.06 o  1.440732
   6   5   1       14.36        6.05        0.51 o  1.438208
   6  -5   1       14.36        6.05        0.52 o  1.438208
   2  -8   2        1.29        0.57        0.05 o  1.437608
   2   8   2        1.29        0.57        0.05 o  1.437608
   2  10   0        4.13        0.74        0.17 o  1.433886
   3   9   1       18.13        2.36        0.71 o  1.433270
   3  -9   1       18.13        2.36        0.71 o  1.433270
   0  10   1       28.75        1.78        0.78 <  1.429442
   5  -7   1      408.26       30.35       10.48 <  1.428362
   5   7   1      408.26       30.35       10.51 <  1.428362
   6   0   2        4.41        0.33        0.10 o  1.427754
   7   0   1       54.74        4.03        1.26 o  1.427590
   7   3   0       32.09        2.54        0.70 o  1.426676
   6   6   0      162.99       18.58        3.23 o  1.424109
   6  -1   2      549.11       87.15       11.74 o  1.421257
   6   1   2      549.11       87.15       11.78 o  1.421257
   7  -1   1      102.73       16.30        2.21 o  1.421095
   7   1   1      102.73       16.30        2.19 o  1.421095
   1 -10   1       17.11        4.13        0.51 o  1.416191
   1  10   1       17.11        4.13        0.51 o  1.416191
   5   5   2        8.95        4.49        0.60 o  1.411753
   5  -5   2        8.95        4.49        0.61 o  1.411753
   4   0   3       34.92        4.64        0.66 o  1.406210
   2   5   3      542.37       95.67       10.13 o  1.403462
   2  -5   3      542.37       95.67       10.15 o  1.403462
   6  -2   2      430.48       76.02        8.05 o  1.402283
   6   2   2      430.48       76.02        8.06 o  1.402283
   7   2   1      101.21       17.87        1.90 o  1.402128
   7  -2   1      101.21       17.87        1.89 o  1.402128
   4  -1   3        7.61        1.32        0.15 o  1.400001
   4   1   3        7.61        1.32        0.15 o  1.400001
   4   9   0        9.17        1.89        0.19 o  1.398409
   3  -4   3      114.96       58.88        4.46 o  1.395863
   3   4   3      114.96       58.88        4.45 o  1.395863
   5   8   0        0.11        0.07        0.01 o  1.389765
   0   6   3      607.34      310.94       37.71 o  1.386298
   7   4   0       23.34        9.81        1.35 o  1.383068
   0   9   2        1.20        0.40        0.07 o  1.382129
   4  -2   3       19.61        6.51        1.10 o  1.381856
   4   2   3       19.61        6.51        1.10 o  1.381856
   2 -10   1       54.12        2.47        2.16 <  1.378547
   2  10   1       54.12        2.47        2.14 <  1.378547
   4   7   2       32.23        1.26        1.18 <  1.377727
   4  -7   2       32.23        1.26        1.18 <  1.377727
   1  -6   3       75.74        0.30        1.85 <  1.374201
   1   6   3       75.74        0.30        1.85 <  1.374201
   3   8   2      178.58        0.43        2.88 <  1.373782
   3  -8   2      178.58        0.43        2.89 <  1.373782
   6   3   2       21.66        0.15        0.62 <  1.372283
   6  -3   2       21.66        0.15        0.61 <  1.372283
   7   3   1      498.79        3.41       14.20 <  1.372137
   7  -3   1      498.79        3.41       14.15 <  1.372137
   3  10   0       13.27        0.10        0.39 <  1.370534
   1  -9   2       96.86        0.73        2.85 <  1.370141
   1   9   2       96.86        0.73        2.85 <  1.370141
   6   6   1       32.48        0.26        0.97 <  1.369852
   6  -6   1       32.48        0.26        0.97 <  1.369852
   4  -3   3       33.62       34.81        3.65 o  1.353121
   4   3   3       33.62       34.81        3.65 o  1.353121
   5  -6   2       86.57      100.74        3.61 o  1.346934
   5   6   2       86.57      100.75        3.61 o  1.346934
   4   9   1      121.70      141.63        5.11 o  1.346933
   4  -9   1      121.70      141.63        5.04 o  1.346933
   6   7   0      121.98      145.76        5.08 o  1.346540
   1  11   0      884.38     1152.70       36.67 o  1.344517
   3  -5   3      267.36      354.31       11.09 o  1.343894
   3   5   3      267.35      354.31       11.09 o  1.343894
   2  -6   3      163.49      300.03        8.96 o  1.339728
   2   6   3      163.49      300.02        8.98 o  1.339728
   5   8   1      699.18     1360.69       40.84 o  1.339204
   5  -8   1      699.18     1360.70       40.93 o  1.339204
   2   9   2      108.44      264.85        8.89 o  1.335965
   2  -9   2      108.44      264.85        8.93 o  1.335965
   6   4   2       44.32      124.87        5.22 o  1.333342
   6  -4   2       44.32      124.87        5.14 o  1.333342
   7   4   1      228.59      644.07       26.67 o  1.333209
   7  -4   1      228.59      644.07       26.76 o  1.333209
   7   5   0       14.12       47.15        2.22 o  1.332464
   3 -10   1      305.11      731.89       62.85 o  1.321971
   3  10   1      305.11      731.89       62.81 o  1.321971
   4   4   3        2.88        3.27        0.24 o  1.315745
   4  -4   3        2.88        3.27        0.25 o  1.315745
   0   7   3        7.56        8.27        0.60 o  1.314443
   2  11   0      846.88      947.13       64.73 o  1.312178
   0  11   1       61.66       52.65        2.89 o  1.308769
   1  -7   3      586.21      482.96       22.73 o  1.304118
   1   7   3      586.21      482.96       22.75 o  1.304118
   5   0   3        0.00        0.00        0.00 <  1.303530
   8   0   0      546.76      466.06       20.96 o  1.303156
   6   7   1       65.18       57.97        2.56 o  1.300399
   6  -7   1       65.18       57.97        2.54 o  1.300399
   1 -11   1      425.17      408.39       19.11 o  1.298576
   5   1   3      135.37      130.02        6.08 o  1.298580
   5  -1   3      135.37      130.02        6.09 o  1.298580
   1  11   1      425.18      408.39       19.12 o  1.298576
   8   1   0        1.82        1.82        0.09 o  1.298209
   5   9   0       59.36       68.56        3.28 o  1.297309
   4   8   2       41.61       48.06        2.29 o  1.297204
   4  -8   2       41.61       48.06        2.31 o  1.297204
   4  10   0        0.50        0.81        0.04 o  1.294468
   6   5   2      181.05      130.21        7.34 o  1.287828
   6  -5   2      181.05      130.21        7.31 o  1.287828
   7  -5   1      110.45       79.43        4.45 o  1.287708
   7   5   1      110.45       79.43        4.50 o  1.287708
   3  -6   3      438.61      318.92       17.73 o  1.287622
   3   6   3      438.61      318.92       17.74 o  1.287622
   3  -9   2       68.22       49.07        2.76 o  1.284279
   3   9   2       68.22       49.07        2.78 o  1.284279
   5   2   3      220.02      155.85        9.03 o  1.284060
   5  -2   3      220.02      155.85        9.05 o  1.284060
   8   2   0      188.92      130.99        7.89 o  1.283702
   0  10   2        0.98        0.78        0.06 o  1.281523
   5   7   2       10.48        9.59        0.68 o  1.280745
   5  -7   2       10.48        9.59        0.67 o  1.280745
   7   0   2      182.60      225.42       15.61 o  1.280188
   7   6   0       82.86      121.95        8.88 o  1.277558
   7   1   2      121.88      118.12        7.85 o  1.275498
   7  -1   2      121.88      118.12        7.80 o  1.275498
   2   7   3       17.17       16.92        1.05 o  1.274545
   2  -7   3       17.17       16.92        1.06 o  1.274545
   1 -10   2      249.03      250.52       14.99 o  1.271949
   4   5   3       61.28       61.65        3.68 o  1.271951
   4  -5   3       61.28       61.65        3.69 o  1.271951
   1  10   2      249.02      250.52       14.96 o  1.271949
   6   8   0      755.61      758.41       45.43 o  1.271072
   2 -11   1        3.12        3.04        0.19 o  1.269370
   2  11   1        3.12        3.04        0.19 o  1.269370
   3  11   0       81.60       63.25        4.59 o  1.263105
   7   2   2       40.76       32.41        2.29 o  1.261731
   7  -2   2       40.76       32.41        2.28 o  1.261731
   8   0   1      242.22      193.15       13.58 o  1.261197
   5   3   3       28.76       22.98        1.60 o  1.260906
   5  -3   3       28.76       22.98        1.62 o  1.260906
   8   3   0     1063.07      848.63       59.58 o  1.260567
   8  -1   1        9.78        8.59        0.63 o  1.256712
   8   1   1        9.78        8.59        0.64 o  1.256712
   5  -9   1      115.67      105.95        8.78 o  1.255895
   5   9   1      115.67      105.95        8.79 o  1.255895
   4  10   1       13.48       34.54        4.07 o  1.253317
   4 -10   1       13.48       34.54        3.95 o  1.253317
   0   0   4       80.23      314.08       40.42 o  1.252623
   0   1   4       36.50       25.26        2.05 o  1.248228
   2  10   2        1.80        1.53        0.08 o  1.244466
   2 -10   2        1.80        1.53        0.08 o  1.244466
   0   8   3      740.48      640.17       32.50 o  1.243970
   1   0   4      109.43       96.05        4.80 o  1.243677
   8   2   1      282.64      251.61       12.40 o  1.243537
   8  -2   1      282.64      251.61       12.35 o  1.243537
   0  12   0      933.95      842.04       40.86 o  1.242853
   7   3   2      215.84      232.86       10.05 o  1.239743
   7  -3   2      215.84      232.86       10.09 o  1.239743
   1  -1   4       52.41       59.16        2.53 o  1.239376
   1   1   4       52.41       59.16        2.51 o  1.239376
   6   6   2       46.12       58.15        2.45 o  1.238058
   6  -6   2       46.12       58.15        2.46 o  1.238058
   7  -6   1      161.21      206.13        8.80 o  1.237950
   7   6   1      161.21      206.13        8.77 o  1.237950
   0   2   4        2.91        3.85        0.17 o  1.235316
   1  -8   3      450.94      570.30       25.13 o  1.235208
   1   8   3      450.94      570.30       25.15 o  1.235208
   1  12   0      242.05      271.22       12.45 o  1.234114
   6   8   1      116.97      114.20        5.51 o  1.232046
   6  -8   1      116.97      114.20        5.50 o  1.232046
   5  -4   3       98.76       92.05        4.74 o  1.230499
   5   4   3       98.76       92.05        4.73 o  1.230499
   8   4   0      585.71      548.45       28.09 o  1.230183
   3  -7   3      240.00      220.70       11.96 o  1.229434
   3   7   3      240.00      220.70       11.89 o  1.229434
   1   2   4       41.21       35.62        2.41 o  1.226734
   1  -2   4       41.21       35.62        2.42 o  1.226734
   3 -11   1      217.97      212.83       17.90 o  1.224787
   3  11   1      217.97      212.83       17.88 o  1.224787
   4  -6   3       42.48       52.14        4.59 o  1.223931
   4   6   3       42.48       52.14        4.65 o  1.223931
   8  -3   1      131.88      439.09       32.73 o  1.222472
   8   3   1      131.88      439.09       32.77 o  1.222472
   4   9   2       39.00      149.08       12.31 o  1.221060
   4  -9   2       39.00      149.08       12.50 o  1.221060
   7   7   0       23.97       96.51        8.05 o  1.220665
   2   0   4      101.56      109.35       12.58 o  1.217950
   5   8   2       77.78       48.76        5.05 o  1.215293
   5  -8   2       77.78       48.76        5.04 o  1.215293
   0   3   4        2.29        1.41        0.14 o  1.214659
   2   1   4       30.65       18.91        1.59 o  1.213909
   2  -1   4       30.65       18.91        1.61 o  1.213909
   5  10   0      569.57      360.16       27.69 o  1.213042
   7  -4   2      192.07      127.06        8.32 o  1.210807
   7   4   2      192.07      127.06        8.35 o  1.210807
   2   8   3       78.24       52.15        3.33 o  1.209992
   2  -8   3       78.24       52.15        3.36 o  1.209992
   2  12   0      818.17      547.81       35.38 o  1.208963
   1  -3   4      147.30      113.75        7.39 o  1.206497
   1   3   4      147.30      113.75        7.43 o  1.206497
   0  12   1      304.66      235.27       15.33 o  1.206296
   6   0   3      108.31      100.26        7.16 o  1.204099
   4  11   0       36.08       41.70        3.06 o  1.202818
   3 -10   2       41.00       49.20        3.69 o  1.202370
   3  10   2       41.00       49.20        3.69 o  1.202370
   2  -2   4       21.14       26.76        2.04 o  1.202023
   2   2   4       21.14       26.76        2.02 o  1.202023
   6   1   3       26.15       45.68        3.41 o  1.200194
   6  -1   3       26.15       45.68        3.40 o  1.200194
   6   9   0      219.13      382.38       28.88 o  1.199190
   1  12   1      285.20      493.87       38.43 o  1.198301
   1 -12   1      285.20      493.87       38.32 o  1.198301
   8  -4   1        2.62        2.89        0.29 o  1.194702
   8   4   1        2.62        2.89        0.29 o  1.194702
   5   5   3       78.57       73.23        7.84 o  1.194454
   5  -5   3       78.57       73.23        7.80 o  1.194454
   8   5   0      176.94      134.13       16.26 o  1.194166
   0  11   2        0.02        0.01        0.00 o  1.192411
   6   2   3      589.75      357.29       34.30 o  1.188702
   6  -2   3      589.75      357.29       34.30 o  1.188702
   0   4   4      245.82      145.02       14.08 o  1.187405
   6   7   2        7.89        4.45        0.46 o  1.186071
   6  -7   2        7.89        4.45        0.46 o  1.186071
   7   7   1       52.70       29.74        3.06 o  1.185977
   7  -7   1       52.70       29.74        3.07 o  1.185977
   1  11   2       74.54       51.32        4.86 o  1.184687
   1 -11   2       74.54       51.32        4.84 o  1.184687
   2   3   4       62.98       60.97        6.36 o  1.182966
   2  -3   4       62.98       60.97        6.33 o  1.182966
   1  -4   4       40.27       18.28        7.48 <  1.179778
   1   4   4       40.27       18.28        7.44 <  1.179778
   5  10   1        6.23        1.64        1.14 <  1.178982
   5 -10   1        6.23        1.64        1.16 <  1.178982
   3   0   4       14.84        3.28        2.75 <  1.178404
   7   5   2        5.13        0.31        0.73 <  1.176418
   7  -5   2        5.13        0.31        0.74 <  1.176418
   0   9   3        4.30        0.21        0.58 <  1.176351
   2 -12   1        2.46        0.00        0.00 <  1.175237
   2  12   1        2.46        0.00        0.00 <  1.175237
   3   1   4      269.89       13.32       26.92 <  1.174743
   3  -1   4      269.89       13.32       26.85 <  1.174743
   4  -7   3       66.29       12.73        5.20 <  1.173633
   4   7   3       66.29       12.73        5.20 <  1.173633
   3   8   3       80.72       34.45        5.65 o  1.171192
   3  -8   3       80.72       34.45        5.63 o  1.171192
   6  -3   3      237.58      121.28       16.37 o  1.170263
   6   3   3      237.58      121.28       16.39 o  1.170263
   3  12   0       68.27       34.85        4.71 o  1.170259
   4 -11   1      130.41       74.31        9.00 o  1.169589
   4  11   1      130.41       74.31        8.99 o  1.169589
   1  -9   3        8.91        5.47        0.62 o  1.168933
   1   9   3        8.91        5.47        0.62 o  1.168933
   6   9   1      223.63      222.57       15.07 o  1.166253
   6  -9   1      223.63      222.57       15.01 o  1.166253
   3   2   4      170.04      211.55       12.22 o  1.163961
   3  -2   4      170.04      211.55       12.13 o  1.163961
   7   8   0       93.95      121.21        6.92 o  1.163604
   2 -11   2      215.89      282.88       16.61 o  1.162386
   2  11   2      215.89      282.88       16.62 o  1.162386
   8   5   1      254.14      331.66       19.79 o  1.161630
   8  -5   1      254.14      331.66       19.77 o  1.161630
   2   4   4      159.01      202.93       12.40 o  1.157747
   2  -4   4      159.01      202.93       12.33 o  1.157747
   8   0   2       13.25       18.65        1.12 o  1.156101
   9   1   0      187.39      218.73       14.46 o  1.154882
   0   5   4       93.51      109.14        7.22 o  1.154920
   5   6   3      153.59      178.60       11.85 o  1.154423
   5  -6   3      153.59      178.60       11.83 o  1.154423
   8   6   0      275.80      324.96       21.11 o  1.154163
   8  -1   2       17.01       20.56        1.25 o  1.152643
   8   1   2       17.01       20.56        1.24 o  1.152643
   5   9   2      259.73      314.61       18.51 o  1.152012
   5  -9   2      259.73      314.61       18.42 o  1.152012
   4  10   2       24.56       24.83        1.51 o  1.150022
   4 -10   2       24.56       24.83        1.52 o  1.150022
   1  -5   4      371.68      256.03       22.24 o  1.147897
   1   5   4      371.68      256.03       22.30 o  1.147897
   2  -9   3       15.65       10.36        0.95 o  1.147494
   2   9   3       15.65       10.36        0.95 o  1.147494
   3   3   4       49.20       34.04        3.07 o  1.146632
   3  -3   4       49.20       34.04        3.11 o  1.146632
   6   4   3      142.70       86.83        8.76 o  1.145831
   6  -4   3      142.70       86.83        8.78 o  1.145831
   9   2   0      105.27       45.86        6.06 o  1.144633
   8   2   2      325.25       49.24       17.71 <  1.142453
   8  -2   2      325.25       49.24       17.78 <  1.142453
   1  13   0      128.05        0.00        0.00 <  1.140365
   3  12   1      400.33        0.00        0.00 <  1.139589
   3 -12   1      400.33        0.00        0.00 <  1.139589
   7  -6   2      208.00        0.00        0.00 <  1.138116
   7   6   2      208.00        0.00        0.00 <  1.138116
   5  11   0       75.61        0.00        0.00 <  1.136656
   6   8   2      189.35        0.00        0.00 <  1.133523
   6  -8   2      189.35        0.00        0.00 <  1.133523
   7  -8   1       82.19        0.00        0.00 <  1.133441
   7   8   1       82.19        0.00        0.00 <  1.133441
   6  10   0      605.39        0.00        0.00 <  1.131696
   4   0   4       19.41        2.17        1.28 <  1.128999
   9   0   1      138.93       17.54        8.35 <  1.128593
   9   3   0        5.54        0.72        0.32 <  1.128141
   3  11   2        1.58        0.21        0.09 <  1.127862
   3 -11   2        1.58        0.21        0.09 <  1.127862
   2   5   4      155.30       24.29        8.54 <  1.127575
   2  -5   4      155.30       24.29        8.52 <  1.127575
   8   3   2       68.60       19.24        3.60 o  1.126053
   8  -3   2       68.60       19.24        3.59 o  1.126053
   4   1   4        6.88        2.07        0.36 o  1.125778
   4  -1   4        6.88        2.07        0.36 o  1.125778
   9  -1   1      169.45       54.05        8.87 o  1.125375
   9   1   1      169.45       54.05        8.89 o  1.125375
   8  -6   1       98.94       36.22        5.19 o  1.124709
   8   6   1       98.94       36.22        5.16 o  1.124709
   3   4   4      169.12       90.06        8.46 o  1.123623
   3  -4   4      169.12       90.06        8.46 o  1.123623
   4  -8   3       48.96       33.15        2.44 o  1.122651
   4   8   3       48.96       33.15        2.44 o  1.122651
   4  12   0        0.61        0.51        0.03 o  1.121830
   2  13   0      334.29      397.00       19.90 o  1.120433
   0   6   4      986.93     1894.38       77.74 o  1.118616
   0  13   1      129.16      262.56       10.62 o  1.118308
   6   5   3      174.22      369.75       14.44 o  1.116557
   6  -5   3      174.22      369.75       14.50 o  1.116557
   4  -2   4       43.38       92.38        3.62 o  1.116278
   4   2   4       43.38       92.38        3.57 o  1.116278
   9   2   1       75.09      160.82        6.28 o  1.115885
   9  -2   1       75.09      160.82        6.35 o  1.115885
   3   9   3        5.79       15.59        0.60 o  1.114242
   3  -9   3        5.79       15.59        0.60 o  1.114242
   0  12   2      224.46      646.20       25.60 o  1.113373
   0  10   3       71.07      208.79        8.38 o  1.112441
   1  -6   4       22.23       66.55        2.72 o  1.112231
   1   6   4       22.23       66.55        2.70 o  1.112231
   1  13   1      138.74      420.49       17.20 o  1.111929
   5   7   3      125.71      381.00       15.59 o  1.111932
   5  -7   3      125.71      381.00       15.51 o  1.111932
   1 -13   1      138.74      420.49       17.13 o  1.111929
   8   7   0       16.39       49.32        2.02 o  1.111699
   7   0   3      442.22     1314.57       53.18 o  1.111567
   7   1   3      139.33      315.67       13.10 o  1.108493
   7  -1   3      139.33      315.67       13.10 o  1.108493
   5  11   1        8.51       19.27        0.79 o  1.108490
   5 -11   1        8.51       19.27        0.81 o  1.108490
   7   9   0        0.73        1.54        0.06 o  1.107702
   1  12   2      259.65      531.12       22.89 o  1.107077
   1 -12   2      259.65      531.12       22.87 o  1.107077
   9   4   0       19.95       40.12        1.75 o  1.106206
   1  10   3       51.99      104.55        4.54 o  1.106161
   1 -10   3       51.99      104.55        4.57 o  1.106161
   8   4   2      287.64      561.53       23.86 o  1.104237
   8  -4   2      287.64      561.53       23.87 o  1.104237
   6  10   1       59.19      113.98        4.91 o  1.103889
   6 -10   1       59.19      113.98        4.90 o  1.103889
   4   3   4       39.74       81.51        3.90 o  1.100965
   4  -3   4       39.74       81.51        3.92 o  1.100965
   9   3   1      359.18      744.00       36.27 o  1.100589
   9  -3   1      359.18      744.00       36.32 o  1.100589
   7   2   3       39.33       87.54        4.52 o  1.099420
   7  -2   3       39.33       87.54        4.53 o  1.099420
   7  -7   2       58.44      158.36        8.41 o  1.097337
   7   7   2       58.44      158.35        8.42 o  1.097337
   3   5   4       10.42       34.19        1.80 o  1.095978
   3  -5   4       10.42       34.19        1.79 o  1.095978
   4  12   1      115.20      467.95       22.74 o  1.094726
   4 -12   1      115.20      467.95       22.87 o  1.094726
   2   6   4      263.56      963.74       45.18 o  1.093715
   2  -6   4      263.55      963.74       45.36 o  1.093715
   2 -13   1       22.50       79.87        3.70 o  1.093428
   2  13   1       22.50       79.87        3.68 o  1.093428
   5  10   2      141.29      466.13       19.56 o  1.091790
   5 -10   2      141.29      466.13       19.64 o  1.091790
   3  13   0      390.09     1258.34       50.76 o  1.089416
   2 -12   2      303.19      967.78       38.73 o  1.088813
   2  12   2      303.19      967.78       38.67 o  1.088813
   2  10   3       53.77      156.84        6.17 o  1.087941
   2 -10   3       53.77      156.84        6.18 o  1.087941
   8  -7   1       36.76       67.60        2.41 o  1.085306
   8   7   1       36.76       67.60        2.40 o  1.085306
   7   3   3      278.05      477.55       16.79 o  1.084782
   7  -3   3      278.05      477.54       16.73 o  1.084782
   4 -11   2       44.67       75.26        2.60 o  1.084318
   4  11   2       44.67       75.26        2.61 o  1.084318
   6   6   3       39.91       66.00        2.27 o  1.083652
   6  -6   3       39.91       66.00        2.26 o  1.083652
   6   9   2      253.63      412.68       14.14 o  1.081657
   6  -9   2      253.63      412.68       14.16 o  1.081657
   7  -9   1      554.82      902.75       31.00 o  1.081586
   7   9   1      554.82      902.75       30.90 o  1.081586
   4   4   4        7.49       11.99        0.42 o  1.080549
   4  -4   4        7.49       11.99        0.41 o  1.080549
   9   4   1      192.10      305.96       10.73 o  1.080193
   9  -4   1      192.10      305.96       10.72 o  1.080193
   9   5   0       35.23       55.72        1.99 o  1.079797
   0   7   4       17.65       28.04        0.99 o  1.079828
   8   5   2       64.63      106.50        4.06 o  1.077966
   8  -5   2       64.63      106.50        4.11 o  1.077966
   1  -7   4      490.28      867.61       45.68 o  1.074081
   1   7   4      490.28      867.61       45.57 o  1.074081
   5   0   4       24.08       40.77        2.19 o  1.073753
   4  -9   3       85.59      138.96        7.46 o  1.072199
   4   9   3       85.59      138.96        7.47 o  1.072199
   5   1   4       29.60       45.61        2.53 o  1.070981
   5  -1   4       29.60       45.61        2.48 o  1.070981
   6  11   0        9.38       11.05        0.77 o  1.068916
   5   8   3       74.41       75.14        6.11 o  1.068288
   5  -8   3       74.41       75.14        6.10 o  1.068288
   8   8   0      304.23      287.72       24.89 o  1.068082
   5  12   0        7.80        6.87        0.63 o  1.067580
   0  14   0      144.16      119.13       12.25 o  1.065302
   7   4   3        5.84        4.83        0.50 o  1.065237
   7  -4   3        5.84        4.83        0.49 o  1.065237
   3   6   4       15.54       11.97        1.30 o  1.064809
   3  -6   4       15.54       11.97        1.29 o  1.064809
   3  13   1      200.35      145.49       16.49 o  1.064544
   3 -13   1      200.35      145.49       16.45 o  1.064544
   5   2   4       12.02        5.66        0.96 o  1.062792
   5  -2   4       12.02        5.66        0.96 o  1.062792
   3 -12   2      144.54       45.32       14.16 o  1.060284
   3  12   2      144.54       45.32       14.11 o  1.060284
   1  14   0        0.25        0.09        0.03 o  1.059784
   3 -10   3      101.91       32.10       10.70 <  1.059479
   3  10   3      101.91       32.10       10.75 <  1.059479
   2   7   4       96.06       10.06        9.65 <  1.057378
   2  -7   4       96.06       10.06        9.65 <  1.057378
   4   5   4       86.53        2.38        7.42 <  1.055896
   4  -5   4       86.53        2.38        7.41 <  1.055896
   9  -5   1       28.96        2.54        2.71 <  1.055563
   9   5   1       28.96        2.54        2.69 <  1.055563
   7  -8   2        3.05        0.42        0.28 <  1.055326
   7   8   2        3.05        0.42        0.29 <  1.055326
   7  10   0      593.92      247.09       54.47 o  1.053851
   0  11   3      133.26       83.44       11.54 o  1.052646
   9   0   2      110.18       88.66        9.13 o  1.051410
   4  13   0       26.79       26.42        2.16 o  1.050024
   9   6   0      107.85      108.56        8.77 o  1.049951
   5   3   4       62.35       64.59        4.94 o  1.049551
   5  -3   4       62.35       64.59        4.96 o  1.049551
   9   1   2      151.51      179.98       12.47 o  1.048807
   9  -1   2      151.52      179.98       12.48 o  1.048807
   6   7   3       12.59       16.33        1.06 o  1.048277
   6  -7   3       12.59       16.33        1.06 o  1.048277
   8  -6   2       23.23       30.15        1.96 o  1.048267
   8   6   2       23.23       30.15        1.96 o  1.048267
   1  11   3      118.62      172.92       10.70 o  1.047321
   1 -11   3      118.62      172.92       10.69 o  1.047321
   6  11   1      230.52      296.94       20.83 o  1.045392
   6 -11   1      230.53      296.94       20.83 o  1.045392
   8   8   1        3.16        4.01        0.29 o  1.044611
   8  -8   1        3.16        4.01        0.30 o  1.044611
   5  12   1       11.18       13.95        1.08 o  1.044142
   5 -12   1       11.18       13.95        1.08 o  1.044142
   2  14   0      104.05      128.41       10.44 o  1.043729
   0  13   2       76.43       90.72        7.99 o  1.043079
  10   0   0       11.27       12.87        1.23 o  1.042524
   0  14   1        1.41        1.57        0.16 o  1.042011
   7  -5   3       74.15       84.08        9.43 o  1.041594
   7   5   3       74.15       84.08        9.41 o  1.041594
   9  -2   2       49.84       53.71        6.70 o  1.041112
   9   2   2       49.84       53.71        6.64 o  1.041112
  10   1   0       16.08       15.15        2.36 o  1.039987
   0   8   4      121.37      109.32       18.24 o  1.039723
   1  13   2        0.04        0.03        0.01 o  1.037897
   1 -13   2        0.04        0.03        0.01 o  1.037897
   1  14   1       23.84       22.43        4.87 o  1.036844
   1 -14   1       23.84       22.43        4.86 o  1.036844
   5  11   2       63.86       37.76        9.62 o  1.035099
   5 -11   2       63.86       37.76        9.66 o  1.035099
   1  -8   4       12.26        6.46        1.73 o  1.034591
   1   8   4       12.26        6.46        1.75 o  1.034591
  10   2   0       38.58       17.75        4.40 o  1.032483
   2 -11   3       18.46        7.95        2.00 o  1.031817
   5   4   4       89.76       38.64        9.67 o  1.031819
   2  11   3       18.46        7.95        2.00 o  1.031817
   5  -4   4       89.76       38.64        9.73 o  1.031819
   6  10   2      118.46       48.41       12.43 o  1.031349
   6 -10   2      118.46       48.41       12.41 o  1.031349
   7  10   1       24.56       10.12        2.52 o  1.031287
   7 -10   1       24.56       10.12        2.53 o  1.031287
   3   7   4       69.65       28.69        7.18 o  1.031191
   3  -7   4       69.65       28.69        7.12 o  1.031191
   9   3   2        4.96        2.32        0.50 o  1.028656
   9  -3   2        4.96        2.32        0.50 o  1.028656
   4  -6   4        0.21        0.09        0.02 o  1.027938
   4   6   4        0.21        0.09        0.02 o  1.027938
   4  13   1      108.13       51.08       11.61 o  1.027699
   4 -13   1      108.13       51.08       11.66 o  1.027699
   9   6   1       80.50       41.45        8.84 o  1.027631
   9  -6   1       80.50       41.45        8.87 o  1.027631
   8   0   3       86.05       47.87        9.67 o  1.027413
   8   1   3       20.78       19.47        2.87 o  1.024984
   8  -1   3       20.78       19.47        2.88 o  1.024984
   5   9   3       87.88       90.99       12.64 o  1.024541
   5  -9   3       87.88       90.99       12.63 o  1.024541
   8   9   0       16.52       18.32        2.44 o  1.024359
   4  12   2       17.44       22.25        2.78 o  1.023865
   4 -12   2       17.44       22.25        2.74 o  1.023865
   4  10   3       79.73      126.57       14.13 o  1.023140
   4 -10   3       79.73      126.57       13.99 o  1.023140
   2 -13   2       78.81      124.94       14.00 o  1.022802
   2  13   2       78.81      124.94       14.04 o  1.022802
   2 -14   1       66.30      121.72       13.04 o  1.021795
   2  14   1       66.30      121.72       12.98 o  1.021795
  10   0   1       29.12       52.73        5.67 o  1.020665
  10   3   0        0.09        0.17        0.02 o  1.020331
   2   8   4       39.89       70.04        7.84 o  1.019638
   2  -8   4       39.89       70.04        7.78 o  1.019638
   3  14   0      105.96      179.84       20.48 o  1.018519
  10   1   1        3.28        5.21        0.65 o  1.018283
  10  -1   1        3.28        5.21        0.63 o  1.018283
   8   2   3       97.28      131.74       17.87 o  1.017799
   8  -2   3       97.28      131.74       17.86 o  1.017799
   9   7   0      105.40      133.82       18.66 o  1.017679
   8   7   2       75.03       70.86       11.13 o  1.016146
   8  -7   2       75.03       70.86       11.18 o  1.016146
   6   0   4        2.35        2.22        0.35 o  1.016104
   7  -6   3       20.76       16.69        2.81 o  1.014729
   7   6   3       20.76       16.69        2.85 o  1.014729
   6   1   4      114.80       90.32       15.72 o  1.013754
   6  -1   4      114.80       90.32       15.71 o  1.013754
   7  -9   2       44.82       34.78        6.02 o  1.013090
   7   9   2       44.82       34.78        6.08 o  1.013090
   9   4   2       32.89       23.83        4.16 o  1.011946
   9  -4   2       32.89       23.83        4.20 o  1.011946
   6   8   3       42.94       31.59        5.41 o  1.011469
   6  -8   3       42.94       31.59        5.37 o  1.011469
  10  -2   1        6.32        4.69        0.78 o  1.011237
  10   2   1        6.32        4.69        0.79 o  1.011237
   6  12   0       20.10       14.48        2.42 o  1.010868
   5   5   4      156.73      132.32       19.06 o  1.010288
   5  -5   4      156.73      132.32       19.08 o  1.010288
   3 -11   3       77.31       79.79        8.45 o  1.007441
   3  11   3       77.31       79.79        8.37 o  1.007441
   6   2   4       73.00       74.19        7.88 o  1.006801
   6  -2   4       73.00       74.19        7.88 o  1.006801
   8   3   3      158.71      153.09       16.62 o  1.006152
   8  -3   3      158.71      153.09       16.60 o  1.006152
   5  13   0      114.47      112.72       12.22 o  1.005141
  10   4   0       57.80       58.62        6.40 o  1.004016
   8   9   1      264.41      262.79       29.16 o  1.003600
   8  -9   1      264.41      262.79       29.18 o  1.003600
   7  11   0       24.37       24.73        2.75 o  1.002599
   0   1   5        3.13        2.65        0.32 o  0.999844
  10   3   1       13.60       11.49        1.38 o  0.999811
  10  -3   1       13.60       11.49        1.37 o  0.999811
   0   9   4      183.14      148.01       18.26 o  0.999263
   3 -13   2       25.18       20.13        2.49 o  0.999045
   3  13   2       25.18       20.13        2.52 o  0.999045
   3 -14   1      108.47       78.53       10.42 o  0.998106
   3  14   1      108.47       78.53       10.44 o  0.998106
   4   7   4      103.98       71.40        9.72 o  0.997596
   4  -7   4      103.98       71.40        9.73 o  0.997596
   1   0   5       11.24        7.72        1.05 o  0.997500
   9   7   1       36.60       25.10        3.41 o  0.997316
   9  -7   1       36.60       25.10        3.39 o  0.997316
   0  12   3      100.48       69.04        9.34 o  0.997075
   3   8   4      133.77       92.23       12.59 o  0.996095
   3  -8   4      133.77       92.23       12.60 o  0.996095
   6   3   4       82.33       55.26        7.82 o  0.995523
   6  -3   4       82.33       55.26        7.81 o  0.995523
   1   1   5        2.78        1.83        0.27 o  0.995277
   1  -1   5        2.78        1.83        0.26 o  0.995277
   1  -9   4       42.33       26.41        4.21 o  0.994704
   1   9   4       42.33       26.41        4.21 o  0.994704
   0   2   5      151.14       75.34       18.58 o  0.993171
   1  12   3       40.19       21.27        5.98 o  0.992546
   1 -12   3       40.19       21.27        5.88 o  0.992546
   9   5   2       36.74       26.17        7.22 o  0.991611
   9  -5   2       36.74       26.17        7.29 o  0.991611
   6  12   1       36.24       36.74        8.70 o  0.990903
   6 -12   1       36.24       36.74        8.66 o  0.990903
   8   4   3       25.40       35.17        7.36 o  0.990498
   8  -4   3       25.40       35.17        7.34 o  0.990498
   1  15   0        0.00        0.00        0.00 <  0.989791
   1   2   5        3.17        3.37        0.62 o  0.988694
   1  -2   5        3.17        3.37        0.66 o  0.988694
   4  14   0       81.24       51.35       10.18 o  0.986109
   5   6   4       47.05       27.91        5.70 o  0.985717
   5  -6   4       47.05       27.91        5.73 o  0.985717
   7  -7   3       70.86       40.94        8.51 o  0.985509
   7   7   3       70.86       40.94        8.49 o  0.985509
   5  13   1       75.28       43.49        9.01 o  0.985507
   5 -13   1       75.28       43.49        9.05 o  0.985507
  10   4   1       15.64        8.11        1.72 o  0.984446
  10  -4   1       15.64        8.11        1.72 o  0.984446
  10   5   0        1.27        0.66        0.13 o  0.984147
   2   0   5        0.22        0.11        0.02 o  0.984078
   9   8   0      167.72       84.68       17.46 o  0.983901
   6  11   2       20.22        9.85        2.00 o  0.983164
   6 -11   2       20.22        9.84        2.01 o  0.983164
   7 -11   1       67.67       32.94        6.72 o  0.983110
   7  11   1       67.67       32.94        6.72 o  0.983110
   8   8   2      120.58       57.18       11.80 o  0.982515
   8  -8   2      120.58       57.18       11.86 o  0.982515
   0   3   5        8.87        4.17        0.87 o  0.982340
   5  12   2        8.37        3.93        0.82 o  0.982124
   5 -12   2        8.37        3.93        0.84 o  0.982124
   2  -1   5        7.82        3.65        0.78 o  0.981943
   2   1   5        7.82        3.65        0.79 o  0.981943
   5  10   3        5.05        2.31        0.53 o  0.981484
   5 -10   3        5.05        2.31        0.53 o  0.981484
   2   9   4       10.79        5.02        1.12 o  0.981393
   2  -9   4       10.79        5.02        1.14 o  0.981393
   8  10   0       29.62       13.79        3.09 o  0.981324
   6   4   4      213.07       86.94       22.46 o  0.980352
   6  -4   4      213.07       86.94       22.40 o  0.980352
   0  14   2       16.74        6.83        1.76 o  0.980350
   2 -12   3       16.27        8.18        1.88 o  0.979320
   2  12   3       16.27        8.18        1.87 o  0.979320
   1   3   5       33.72       22.03        4.01 o  0.978008
   1  -3   5       33.72       22.03        4.05 o  0.978008
   2  15   0       38.61       30.01        5.43 o  0.976673
   1  14   2        1.86        1.62        0.30 o  0.976044
   1 -14   2        1.86        1.62        0.28 o  0.976044
   4  11   3       19.56       17.08        3.07 o  0.976045
   4 -11   3       19.56       17.08        3.04 o  0.976045
   2   2   5      243.34      226.67       41.47 o  0.975620
   2  -2   5      243.34      226.67       41.64 o  0.975620
   0  15   1       66.27       60.59       11.40 o  0.975265

